
=================================================================
                            Nalu:                                
      A low Mach number, turbulent reacting flow code with       
            coupling to PMR and object response (CHT)            
=================================================================

   Nalu Version: v1.2.0
   Nalu GIT Commit SHA: dfa4c2ad105178a5d8d1258f18416656ed952a8f-DIRTY
   Trilinos Version: 12.17-g478a2b3a

   TPLs: Boost, HDF5, netCDF, STK, Trilinos, YAML_cpp and zlib   
   Optional TPLs enabled: OpenFAST, Hypre, TIOGA

              Copyright 2014 Sandia Corporation.                 
      This software is released under the license detailed       
   in the file, LICENSE, which is located in the top-level Nalu  
                     directory structure                         
-----------------------------------------------------------------


Realm Options Review: fluidRealm
===========================
Edge-based scheme will be activated
Warning: When using automatic_decomposition_type, one must have a serial file
Nalu will deactivate aura ghosting

Turbulence Model Review:   
===========================
Turbulence Model is: laminar 0

PPE review:   
===========================
Realm::create_mesh(): Begin
Realm::create_mesh() End

Boundary Condition Review: 
===========================
Periodic BC name:    bc_inlet_outlet between inlet and outlet
Periodic BC name:    bc_front_back between front and back
Inflow BC name:      bc_topwall on topwall
Wall BC name:        bc_bottomwall on bottomwall

Initial Condition Review:  
===========================
Initial Is Type constant 

Material Prop Review:      
===========================
density is a constant property: 1
viscosity is a constant property: 0.000125

EqSys/options Review:      
===========================
Edge projected nodal gradient for velocity: 0
Edge projected nodal gradient for pressure: 0

Realm memory Review:       fluidRealm
===========================
Node count from meta data = 186200
Total memory estimate for Matrix solve (per core)= 0.140464 GB.
Total memory estimate (per core) = 0.140464 GB.

Time Integrator Review:  
=========================
StandardTimeIntegrator 
 name=              ti_1
 second order =     1
 maxTimeStepCount = 100
 fixed time step is active   with time step: 0.1
StandardTimeIntegrator realm_name[0]= fluidRealm

Transfer Review:         
=========================
Realm::initialize() Begin 
Created algorithm = Alg0000_elem_HEXAHEDRON_8_geometry
Created algorithm = Alg0000_algorithm_momentum_nodal_grad
Created algorithm = Alg0000_algorithm_continuity_nodal_grad
PeriodicManager::search method not declared; will use stk_kdtree
PeriodicManager::search method not declared; will use stk_kdtree
Created algorithm = Alg0002_face_QUADRILATERAL_4_geometry
Created algorithm = Alg0002_face_QUADRILATERAL_4_momentum_nodal_grad
Created algorithm = Alg0002_face_QUADRILATERAL_4_continuity_nodal_grad
Created algorithm = Alg0003_face_QUADRILATERAL_4_geometry
MomentumEquationSystem::register_wall_bc(): Mesh motion active! Velocity definition under wall_user_data will be ignored
Created algorithm = Alg0003_face_QUADRILATERAL_4_momentum_nodal_grad
Created algorithm = Alg0003_face_QUADRILATERAL_4_continuity_nodal_grad
Realm::ioBroker_->populate_mesh() Begin
Realm::ioBroker_->populate_mesh() End
Realm::create_edges(): Nalu Realm: fluidRealm requires edge creation: Begin
Realm::create_edges(): Nalu Realm: fluidRealm requires edge creation: End
Realm::ioBroker_->populate_field_data() Begin
Realm::ioBroker_->populate_field_data() End
Realm::create_output_mesh(): Begin
Realm::create_output_mesh() End

Periodic Review:  realm: fluidRealm
=========================
Translating [ -6 0 0 ] Master/Slave pair 
Translating [ 0 -5 0 ] Master/Slave pair 
Translating [ -6 -5 0 ] Master/Slave pair 
---------------------------------------------------
Parallel consistency noted in master/slave pairings: 5929/5929
---------------------------------------------------

 Volume  31.0438 min: 2.3684e-05 max: 0.000427738
EquationSystems::initialize(): Begin 
EquationSystems::initialize(): End 

Realm memory Review:       fluidRealm
===========================
Total memory estimate for Matrix solve (per core)= 0.140464 GB.
Total memory estimate for Fields (per core)= 0.0132885 GB.
Total memory estimate (per core) = 0.153752 GB.
Realm::initialize() End 

*******************************************************
Simulation Shall Commence: number of processors = 8
*******************************************************
WARNING: Realm::populate_variables_from_input for field velocity_STKFS_N is missing; will default to IC specification
Realm::populate_variables_form_input() candidate input time: 0 for Realm: fluidRealm
Realm shall provide output files at : currentTime/timeStepCount: 0/0 (fluidRealm)
*******************************************************
Time Step Count: 1 Current Time: 0.1
 dtN: 0.1 dtNm1: 0.1 gammas: 1 -1 0
 Volume  31.0438 min: 2.36916e-05 max: 0.000427732
 Max Courant: 2.52579 Max Reynolds: 1403.22 (fluidRealm)
   Realm Nonlinear Iteration: 1/1

fluidRealm::advance_time_step() 
NLI    Name           Linear Iter      Linear Res     NLinear Res    Scaled NLR
---    ----           -----------      ----------     -----------    ----------
1/3    Equation System Iteration
 1/1      myLowMach
        MomentumEQS           32       5.20613e-05       0.133117             1
        ContinuityEQS         11       3.28734e-06      0.0107904             1
2/3    Equation System Iteration
 1/1      myLowMach
        MomentumEQS           20        2.1461e-07     0.00096934    0.00728185
        ContinuityEQS         11       1.32689e-06     0.00639213      0.592389
3/3    Equation System Iteration
 1/1      myLowMach
        MomentumEQS           13        1.1459e-07    0.000281807    0.00211698
        ContinuityEQS         11       3.56305e-07     0.00188283      0.174491
Mass Balance Review:  
Density accumulation: 0
Integrated inflow:    -1.897353801849633e-19
Integrated open:      0
Total mass closure:   -1.89735e-19
Realm shall provide output files at : currentTime/timeStepCount: 0.1/1 (fluidRealm)
Mean System Norm: 0.001082318385948014 1 0.1
WallClockTime: 1 Pre: 0.160366 NLI: 2.62668 Post: 0.00690508 Total: 2.79395
*******************************************************
Time Step Count: 2 Current Time: 0.2
 dtN: 0.1 dtNm1: 0.1 gammas: 1.5 -2 0.5
 Volume  31.0439 min: 2.37145e-05 max: 0.000427716
 Max Courant: 1.98434 Max Reynolds: 1102.41 (fluidRealm)
   Realm Nonlinear Iteration: 1/1

fluidRealm::advance_time_step() 
NLI    Name           Linear Iter      Linear Res     NLinear Res    Scaled NLR
---    ----           -----------      ----------     -----------    ----------
1/3    Equation System Iteration
 1/1      myLowMach
        MomentumEQS            9       2.65909e-07    0.000901334             1
        ContinuityEQS         12       9.13226e-07     0.00641656             1
2/3    Equation System Iteration
 1/1      myLowMach
        MomentumEQS            9       5.52059e-08    0.000179788      0.199469
        ContinuityEQS         11       3.98259e-07      0.0014782      0.230373
3/3    Equation System Iteration
 1/1      myLowMach
        MomentumEQS            9        1.1546e-08    4.39254e-05     0.0487338
        ContinuityEQS         11       8.24584e-08    0.000367215     0.0572293
Mass Balance Review:  
Density accumulation: 0
Integrated inflow:    -9.75781955236954e-19
Integrated open:      0
Total mass closure:   -9.75782e-19
Realm shall provide output files at : currentTime/timeStepCount: 0.2/2 (fluidRealm)
Mean System Norm: 0.0002055701334441415 2 0.2
WallClockTime: 2 Pre: 0.178187 NLI: 1.56421 Post: 0.00995588 Total: 1.75235
*******************************************************
Time Step Count: 3 Current Time: 0.3
 dtN: 0.1 dtNm1: 0.1 gammas: 1.5 -2 0.5
 Volume  31.044 min: 2.37525e-05 max: 0.000427688
 Max Courant: 1.82915 Max Reynolds: 1016.2 (fluidRealm)
   Realm Nonlinear Iteration: 1/1

fluidRealm::advance_time_step() 
NLI    Name           Linear Iter      Linear Res     NLinear Res    Scaled NLR
---    ----           -----------      ----------     -----------    ----------
1/3    Equation System Iteration
 1/1      myLowMach
        MomentumEQS            9       2.11575e-07    0.000720182             1
        ContinuityEQS         11       1.80094e-06     0.00514564             1
2/3    Equation System Iteration
 1/1      myLowMach
        MomentumEQS            9       4.39411e-08     0.00013705      0.190299
        ContinuityEQS         11        2.7704e-07     0.00112882      0.219375
3/3    Equation System Iteration
 1/1      myLowMach
        MomentumEQS            9       7.24699e-09     2.9586e-05     0.0410813
        ContinuityEQS         11       5.03534e-08    0.000255286     0.0496121
Mass Balance Review:  
Density accumulation: 0
Integrated inflow:    1.084202172485504e-19
Integrated open:      0
Total mass closure:   1.0842e-19
Realm shall provide output files at : currentTime/timeStepCount: 0.3/3 (fluidRealm)
Mean System Norm: 0.0001424360026661891 3 0.3
WallClockTime: 3 Pre: 0.161618 NLI: 1.57516 Post: 0.00959897 Total: 1.74637
*******************************************************
Time Step Count: 4 Current Time: 0.4
 dtN: 0.1 dtNm1: 0.1 gammas: 1.5 -2 0.5
 Volume  31.0441 min: 2.37382e-05 max: 0.000427698
 Max Courant: 2.13287 Max Reynolds: 984.695 (fluidRealm)
   Realm Nonlinear Iteration: 1/1

fluidRealm::advance_time_step() 
NLI    Name           Linear Iter      Linear Res     NLinear Res    Scaled NLR
---    ----           -----------      ----------     -----------    ----------
1/3    Equation System Iteration
 1/1      myLowMach
        MomentumEQS            9       1.98272e-07    0.000635015             1
        ContinuityEQS         11       1.02039e-06     0.00397404             1
2/3    Equation System Iteration
 1/1      myLowMach
        MomentumEQS            9       3.66704e-08    0.000114361      0.180092
        ContinuityEQS         11       1.98933e-07    0.000920343      0.231589
3/3    Equation System Iteration
 1/1      myLowMach
        MomentumEQS            9        6.1917e-09    2.27772e-05     0.0358687
        ContinuityEQS         11       3.35161e-08    0.000201143     0.0506144
Mass Balance Review:  
Density accumulation: 0
Integrated inflow:    -1.355252715606881e-19
Integrated open:      0
Total mass closure:   -1.35525e-19
Realm shall provide output files at : currentTime/timeStepCount: 0.4/4 (fluidRealm)
Mean System Norm: 0.0001119603306040257 4 0.4
WallClockTime: 4 Pre: 0.166632 NLI: 1.52072 Post: 0.00954413 Total: 1.6969
*******************************************************
Time Step Count: 5 Current Time: 0.5
 dtN: 0.1 dtNm1: 0.1 gammas: 1.5 -2 0.5
 Volume  31.0443 min: 2.37052e-05 max: 0.000427722
 Max Courant: 2.04883 Max Reynolds: 947.873 (fluidRealm)
   Realm Nonlinear Iteration: 1/1

fluidRealm::advance_time_step() 
NLI    Name           Linear Iter      Linear Res     NLinear Res    Scaled NLR
---    ----           -----------      ----------     -----------    ----------
1/3    Equation System Iteration
 1/1      myLowMach
        MomentumEQS            9       2.07773e-07    0.000579088             1
        ContinuityEQS         11       4.83387e-07     0.00339234             1
2/3    Equation System Iteration
 1/1      myLowMach
        MomentumEQS            9       2.16204e-08      9.945e-05      0.171736
        ContinuityEQS         11       1.11333e-07    0.000804012      0.237008
3/3    Equation System Iteration
 1/1      myLowMach
        MomentumEQS            9       3.66944e-09    1.84716e-05     0.0318977
        ContinuityEQS         11       2.39698e-08    0.000167998     0.0495229
Mass Balance Review:  
Density accumulation: 0
Integrated inflow:    1.382357769919018e-18
Integrated open:      0
Total mass closure:   1.38236e-18
Realm shall provide output files at : currentTime/timeStepCount: 0.5/5 (fluidRealm)
Mean System Norm: 9.323488682185779e-05 5 0.5
WallClockTime: 5 Pre: 0.166116 NLI: 1.53126 Post: 0.0081389 Total: 1.70551
*******************************************************
Time Step Count: 6 Current Time: 0.6
 dtN: 0.1 dtNm1: 0.1 gammas: 1.5 -2 0.5
 Volume  31.0445 min: 2.36874e-05 max: 0.000427735
 Max Courant: 1.76161 Max Reynolds: 905.082 (fluidRealm)
   Realm Nonlinear Iteration: 1/1

fluidRealm::advance_time_step() 
NLI    Name           Linear Iter      Linear Res     NLinear Res    Scaled NLR
---    ----           -----------      ----------     -----------    ----------
1/3    Equation System Iteration
 1/1      myLowMach
        MomentumEQS            9       1.19479e-07    0.000534303             1
        ContinuityEQS         11       3.72245e-07     0.00300423             1
2/3    Equation System Iteration
 1/1      myLowMach
        MomentumEQS            9       1.15733e-08    8.78596e-05      0.164438
        ContinuityEQS         11       1.04728e-07    0.000721142      0.240042
3/3    Equation System Iteration
 1/1      myLowMach
        MomentumEQS            9       1.96217e-09    1.53255e-05     0.0286831
        ContinuityEQS         11       2.24765e-08    0.000142575     0.0474579
Mass Balance Review:  
Density accumulation: 0
Integrated inflow:    -4.065758146820642e-19
Integrated open:      0
Total mass closure:   -4.06576e-19
Realm shall provide output files at : currentTime/timeStepCount: 0.6/6 (fluidRealm)
Mean System Norm: 7.894999483883114e-05 6 0.6
WallClockTime: 6 Pre: 0.163807 NLI: 1.58661 Post: 0.00768495 Total: 1.7581
*******************************************************
Time Step Count: 7 Current Time: 0.7
 dtN: 0.1 dtNm1: 0.1 gammas: 1.5 -2 0.5
 Volume  31.0448 min: 2.36848e-05 max: 0.000427737
 Max Courant: 1.65448 Max Reynolds: 894.129 (fluidRealm)
   Realm Nonlinear Iteration: 1/1

fluidRealm::advance_time_step() 
NLI    Name           Linear Iter      Linear Res     NLinear Res    Scaled NLR
---    ----           -----------      ----------     -----------    ----------
1/3    Equation System Iteration
 1/1      myLowMach
        MomentumEQS            9       7.02586e-08    0.000497275             1
        ContinuityEQS         10       1.12819e-06     0.00273058             1
2/3    Equation System Iteration
 1/1      myLowMach
        MomentumEQS            9         9.588e-09    7.80709e-05      0.156997
        ContinuityEQS         11       8.77842e-08    0.000648544      0.237511
3/3    Equation System Iteration
 1/1      myLowMach
        MomentumEQS            9        1.3211e-09     1.2979e-05     0.0261003
        ContinuityEQS         11       1.98188e-08     0.00012327     0.0451441
Mass Balance Review:  
Density accumulation: 0
Integrated inflow:    1.897353801849633e-19
Integrated open:      0
Total mass closure:   1.89735e-19
Realm shall provide output files at : currentTime/timeStepCount: 0.7/7 (fluidRealm)
Mean System Norm: 6.812434635099095e-05 7 0.7
WallClockTime: 7 Pre: 0.167908 NLI: 1.51779 Post: 0.00912499 Total: 1.69482
*******************************************************
Time Step Count: 8 Current Time: 0.8
 dtN: 0.1 dtNm1: 0.1 gammas: 1.5 -2 0.5
 Volume  31.0451 min: 2.36976e-05 max: 0.000427728
 Max Courant: 1.85223 Max Reynolds: 920.894 (fluidRealm)
   Realm Nonlinear Iteration: 1/1

fluidRealm::advance_time_step() 
NLI    Name           Linear Iter      Linear Res     NLinear Res    Scaled NLR
---    ----           -----------      ----------     -----------    ----------
1/3    Equation System Iteration
 1/1      myLowMach
        MomentumEQS            9        5.5781e-08     0.00046611             1
        ContinuityEQS         10       9.51706e-07     0.00251817             1
2/3    Equation System Iteration
 1/1      myLowMach
        MomentumEQS            9       7.32602e-09    7.02329e-05      0.150679
        ContinuityEQS         11       8.01262e-08    0.000588459      0.233685
3/3    Equation System Iteration
 1/1      myLowMach
        MomentumEQS            9       9.64989e-10    1.11414e-05      0.023903
        ContinuityEQS         11       1.76355e-08    0.000108426     0.0430574
Mass Balance Review:  
Density accumulation: 0
Integrated inflow:    -2.507217523872729e-18
Integrated open:      0
Total mass closure:   -2.50722e-18
Realm shall provide output files at : currentTime/timeStepCount: 0.8/8 (fluidRealm)
Mean System Norm: 5.978360690945777e-05 8 0.8
WallClockTime: 8 Pre: 0.166474 NLI: 1.62725 Post: 0.00714707 Total: 1.80087
*******************************************************
Time Step Count: 9 Current Time: 0.9
 dtN: 0.1 dtNm1: 0.1 gammas: 1.5 -2 0.5
 Volume  31.0454 min: 2.37255e-05 max: 0.000427708
 Max Courant: 1.97104 Max Reynolds: 887.913 (fluidRealm)
   Realm Nonlinear Iteration: 1/1

fluidRealm::advance_time_step() 
NLI    Name           Linear Iter      Linear Res     NLinear Res    Scaled NLR
---    ----           -----------      ----------     -----------    ----------
1/3    Equation System Iteration
 1/1      myLowMach
        MomentumEQS            8       1.81217e-07    0.000439192             1
        ContinuityEQS         10       9.73501e-07     0.00232807             1
2/3    Equation System Iteration
 1/1      myLowMach
        MomentumEQS            9         6.095e-09    6.35783e-05      0.144762
        ContinuityEQS         11       8.46824e-08    0.000538378      0.231255
3/3    Equation System Iteration
 1/1      myLowMach
        MomentumEQS            8       3.27323e-09    9.64872e-06     0.0219693
        ContinuityEQS         11       1.47094e-08    9.59391e-05     0.0412097
Mass Balance Review:  
Density accumulation: 0
Integrated inflow:    8.944667923005412e-19
Integrated open:      0
Total mass closure:   8.94467e-19
Realm shall provide output files at : currentTime/timeStepCount: 0.9/9 (fluidRealm)
Mean System Norm: 5.279391777188221e-05 9 0.9
WallClockTime: 9 Pre: 0.210202 NLI: 1.64531 Post: 0.00905991 Total: 1.86458
*******************************************************
Time Step Count: 10 Current Time: 1
 dtN: 0.1 dtNm1: 0.1 gammas: 1.5 -2 0.5
 Volume  31.0457 min: 2.37685e-05 max: 0.000427676
 Max Courant: 2.10208 Max Reynolds: 835.036 (fluidRealm)
   Realm Nonlinear Iteration: 1/1

fluidRealm::advance_time_step() 
NLI    Name           Linear Iter      Linear Res     NLinear Res    Scaled NLR
---    ----           -----------      ----------     -----------    ----------
1/3    Equation System Iteration
 1/1      myLowMach
        MomentumEQS            8        1.6657e-07    0.000415545             1
        ContinuityEQS         11       2.69441e-07     0.00216621             1
2/3    Equation System Iteration
 1/1      myLowMach
        MomentumEQS            8       2.04817e-08    5.79138e-05      0.139368
        ContinuityEQS         11         7.162e-08    0.000492446       0.22733
3/3    Equation System Iteration
 1/1      myLowMach
        MomentumEQS            8       2.49362e-09    8.43566e-06     0.0203002
        ContinuityEQS         11       1.40011e-08    8.51645e-05     0.0393149
Mass Balance Review:  
Density accumulation: 0
Integrated inflow:    -6.776263578034403e-20
Integrated open:      0
Total mass closure:   -6.77626e-20
Realm shall provide output files at : currentTime/timeStepCount: 1/10 (fluidRealm)
Mean System Norm: 4.680006360205124e-05 10 1
WallClockTime: 10 Pre: 0.166161 NLI: 1.47247 Post: 0.00889397 Total: 1.64753
*******************************************************
Time Step Count: 11 Current Time: 1.1
 dtN: 0.1 dtNm1: 0.1 gammas: 1.5 -2 0.5
 Volume  31.0461 min: 2.37255e-05 max: 0.000427708
 Max Courant: 2.10624 Max Reynolds: 821.569 (fluidRealm)
   Realm Nonlinear Iteration: 1/1

fluidRealm::advance_time_step() 
NLI    Name           Linear Iter      Linear Res     NLinear Res    Scaled NLR
---    ----           -----------      ----------     -----------    ----------
1/3    Equation System Iteration
 1/1      myLowMach
        MomentumEQS            8       1.31961e-07    0.000394258             1
        ContinuityEQS         10       8.15673e-07     0.00202356             1
2/3    Equation System Iteration
 1/1      myLowMach
        MomentumEQS            8       1.85406e-08    5.31939e-05      0.134922
        ContinuityEQS         10         1.881e-07    0.000452292      0.223513
3/3    Equation System Iteration
 1/1      myLowMach
        MomentumEQS            8       2.27198e-09    7.44898e-06     0.0188937
        ContinuityEQS         11       1.20553e-08    7.62601e-05     0.0376861
Mass Balance Review:  
Density accumulation: 0
Integrated inflow:    -2.344587197999903e-18
Integrated open:      0
Total mass closure:   -2.34459e-18
Realm shall provide output files at : currentTime/timeStepCount: 1.1/11 (fluidRealm)
Mean System Norm: 4.185453953346898e-05 11 1.1
WallClockTime: 11 Pre: 0.162032 NLI: 1.45786 Post: 0.00786901 Total: 1.62776
*******************************************************
Time Step Count: 12 Current Time: 1.2
 dtN: 0.1 dtNm1: 0.1 gammas: 1.5 -2 0.5
 Volume  31.0465 min: 2.36976e-05 max: 0.000427728
 Max Courant: 2.01902 Max Reynolds: 781.902 (fluidRealm)
   Realm Nonlinear Iteration: 1/1

fluidRealm::advance_time_step() 
NLI    Name           Linear Iter      Linear Res     NLinear Res    Scaled NLR
---    ----           -----------      ----------     -----------    ----------
1/3    Equation System Iteration
 1/1      myLowMach
        MomentumEQS            8       1.17846e-07    0.000374914             1
        ContinuityEQS         10        7.3382e-07      0.0018906             1
2/3    Equation System Iteration
 1/1      myLowMach
        MomentumEQS            8       1.42231e-08    4.87374e-05      0.129996
        ContinuityEQS         10       1.50784e-07    0.000415814      0.219938
3/3    Equation System Iteration
 1/1      myLowMach
        MomentumEQS            8       1.70452e-09    6.57842e-06     0.0175465
        ContinuityEQS         10       2.39992e-08    6.81764e-05     0.0360607
Mass Balance Review:  
Density accumulation: 0
Integrated inflow:    8.809142651444724e-19
Integrated open:      0
Total mass closure:   8.80914e-19
Realm shall provide output files at : currentTime/timeStepCount: 1.2/12 (fluidRealm)
Mean System Norm: 3.737740628275988e-05 12 1.2
WallClockTime: 12 Pre: 0.183744 NLI: 1.48513 Post: 0.00748301 Total: 1.67636
*******************************************************
Time Step Count: 13 Current Time: 1.3
 dtN: 0.1 dtNm1: 0.1 gammas: 1.5 -2 0.5
 Volume  31.0469 min: 2.36848e-05 max: 0.000427737
 Max Courant: 1.91875 Max Reynolds: 781.218 (fluidRealm)
   Realm Nonlinear Iteration: 1/1

fluidRealm::advance_time_step() 
NLI    Name           Linear Iter      Linear Res     NLinear Res    Scaled NLR
---    ----           -----------      ----------     -----------    ----------
1/3    Equation System Iteration
 1/1      myLowMach
        MomentumEQS            8       1.02561e-07    0.000357522             1
        ContinuityEQS         10       7.22655e-07     0.00177208             1
2/3    Equation System Iteration
 1/1      myLowMach
        MomentumEQS            8        1.1054e-08    4.48516e-05      0.125451
        ContinuityEQS         11       5.65537e-08    0.000384361      0.216898
3/3    Equation System Iteration
 1/1      myLowMach
        MomentumEQS            8       1.25302e-09    5.85786e-06     0.0163846
        ContinuityEQS         11         9.318e-09    6.17369e-05     0.0348386
Mass Balance Review:  
Density accumulation: 0
Integrated inflow:    8.402566836762659e-19
Integrated open:      0
Total mass closure:   8.40257e-19
Realm shall provide output files at : currentTime/timeStepCount: 1.3/13 (fluidRealm)
Mean System Norm: 3.379736229343844e-05 13 1.3
WallClockTime: 13 Pre: 0.173111 NLI: 1.50827 Post: 0.00965095 Total: 1.69103
*******************************************************
Time Step Count: 14 Current Time: 1.4
 dtN: 0.1 dtNm1: 0.1 gammas: 1.5 -2 0.5
 Volume  31.0474 min: 2.36874e-05 max: 0.000427735
 Max Courant: 1.75591 Max Reynolds: 762.505 (fluidRealm)
   Realm Nonlinear Iteration: 1/1

fluidRealm::advance_time_step() 
NLI    Name           Linear Iter      Linear Res     NLinear Res    Scaled NLR
---    ----           -----------      ----------     -----------    ----------
1/3    Equation System Iteration
 1/1      myLowMach
        MomentumEQS            8       8.03833e-08    0.000341838             1
        ContinuityEQS         10       5.46189e-07     0.00166579             1
2/3    Equation System Iteration
 1/1      myLowMach
        MomentumEQS            8       1.01715e-08    4.15183e-05      0.121456
        ContinuityEQS         11       4.17419e-08    0.000358671      0.215316
3/3    Equation System Iteration
 1/1      myLowMach
        MomentumEQS            8       1.08096e-09    5.24387e-06     0.0153402
        ContinuityEQS         11       7.01552e-09    5.63633e-05     0.0338358
Mass Balance Review:  
Density accumulation: 0
Integrated inflow:    5.421010862427522e-20
Integrated open:      0
Total mass closure:   5.42101e-20
Realm shall provide output files at : currentTime/timeStepCount: 1.4/14 (fluidRealm)
Mean System Norm: 3.080357116258734e-05 14 1.4
WallClockTime: 14 Pre: 0.16919 NLI: 1.49522 Post: 0.00909114 Total: 1.6735
*******************************************************
Time Step Count: 15 Current Time: 1.5
 dtN: 0.1 dtNm1: 0.1 gammas: 1.5 -2 0.5
 Volume  31.0479 min: 2.37052e-05 max: 0.000427722
 Max Courant: 1.64785 Max Reynolds: 729.011 (fluidRealm)
   Realm Nonlinear Iteration: 1/1

fluidRealm::advance_time_step() 
NLI    Name           Linear Iter      Linear Res     NLinear Res    Scaled NLR
---    ----           -----------      ----------     -----------    ----------
1/3    Equation System Iteration
 1/1      myLowMach
        MomentumEQS            8       7.10941e-08    0.000327527             1
        ContinuityEQS         10       5.35515e-07     0.00156879             1
2/3    Equation System Iteration
 1/1      myLowMach
        MomentumEQS            8       8.45526e-09    3.84449e-05      0.117379
        ContinuityEQS         11       4.98553e-08    0.000334192      0.213025
3/3    Equation System Iteration
 1/1      myLowMach
        MomentumEQS            8       9.44491e-10    4.70657e-06       0.01437
        ContinuityEQS         11       8.37145e-09    5.11891e-05     0.0326296
Mass Balance Review:  
Density accumulation: 0
Integrated inflow:    1.531435568635775e-18
Integrated open:      0
Total mass closure:   1.53144e-18
Realm shall provide output files at : currentTime/timeStepCount: 1.5/15 (fluidRealm)
Mean System Norm: 2.794784220085937e-05 15 1.5
WallClockTime: 15 Pre: 0.18271 NLI: 1.50952 Post: 0.00945091 Total: 1.70168
*******************************************************
Time Step Count: 16 Current Time: 1.6
 dtN: 0.1 dtNm1: 0.1 gammas: 1.5 -2 0.5
 Volume  31.0483 min: 2.37382e-05 max: 0.000427698
 Max Courant: 1.65916 Max Reynolds: 738.79 (fluidRealm)
   Realm Nonlinear Iteration: 1/1

fluidRealm::advance_time_step() 
NLI    Name           Linear Iter      Linear Res     NLinear Res    Scaled NLR
---    ----           -----------      ----------     -----------    ----------
1/3    Equation System Iteration
 1/1      myLowMach
        MomentumEQS            8       6.40302e-08    0.000314327             1
        ContinuityEQS         11       1.81359e-07     0.00147868             1
2/3    Equation System Iteration
 1/1      myLowMach
        MomentumEQS            8       7.35211e-09    3.58186e-05      0.113953
        ContinuityEQS         11       5.15939e-08    0.000311782      0.210851
3/3    Equation System Iteration
 1/1      myLowMach
        MomentumEQS            8       8.28682e-10    4.24216e-06      0.013496
        ContinuityEQS         11       7.65717e-09    4.64821e-05     0.0314348
Mass Balance Review:  
Density accumulation: 0
Integrated inflow:    3.388131789017201e-20
Integrated open:      0
Total mass closure:   3.38813e-20
Realm shall provide output files at : currentTime/timeStepCount: 1.6/16 (fluidRealm)
Mean System Norm: 2.536212387260544e-05 16 1.6
WallClockTime: 16 Pre: 0.174992 NLI: 1.50446 Post: 0.00852704 Total: 1.68798
*******************************************************
Time Step Count: 17 Current Time: 1.7
 dtN: 0.1 dtNm1: 0.1 gammas: 1.5 -2 0.5
 Volume  31.0488 min: 2.37525e-05 max: 0.000427688
 Max Courant: 1.61989 Max Reynolds: 719.309 (fluidRealm)
   Realm Nonlinear Iteration: 1/1

fluidRealm::advance_time_step() 
NLI    Name           Linear Iter      Linear Res     NLinear Res    Scaled NLR
---    ----           -----------      ----------     -----------    ----------
1/3    Equation System Iteration
 1/1      myLowMach
        MomentumEQS            8       6.21394e-08    0.000302116             1
        ContinuityEQS         11       1.70686e-07     0.00139592             1
2/3    Equation System Iteration
 1/1      myLowMach
        MomentumEQS            8       6.79237e-09    3.35738e-05      0.111129
        ContinuityEQS         11       5.08265e-08    0.000292501      0.209539
3/3    Equation System Iteration
 1/1      myLowMach
        MomentumEQS            8       6.40535e-10    3.85184e-06     0.0127496
        ContinuityEQS         11       7.76751e-09    4.28392e-05     0.0306888
Mass Balance Review:  
Density accumulation: 0
Integrated inflow:    -2.371692252312041e-19
Integrated open:      0
Total mass closure:   -2.37169e-19
Realm shall provide output files at : currentTime/timeStepCount: 1.7/17 (fluidRealm)
Mean System Norm: 2.334550259101922e-05 17 1.7
WallClockTime: 17 Pre: 0.176284 NLI: 1.54184 Post: 0.00841808 Total: 1.72654
*******************************************************
Time Step Count: 18 Current Time: 1.8
 dtN: 0.1 dtNm1: 0.1 gammas: 1.5 -2 0.5
 Volume  31.0493 min: 2.37145e-05 max: 0.000427716
 Max Courant: 1.59248 Max Reynolds: 722.861 (fluidRealm)
   Realm Nonlinear Iteration: 1/1

fluidRealm::advance_time_step() 
NLI    Name           Linear Iter      Linear Res     NLinear Res    Scaled NLR
---    ----           -----------      ----------     -----------    ----------
1/3    Equation System Iteration
 1/1      myLowMach
        MomentumEQS            8        5.4384e-08    0.000290878             1
        ContinuityEQS         10       5.20656e-07     0.00131958             1
2/3    Equation System Iteration
 1/1      myLowMach
        MomentumEQS            8        4.9752e-09    3.13817e-05      0.107886
        ContinuityEQS         11       4.92171e-08    0.000274338      0.207899
3/3    Equation System Iteration
 1/1      myLowMach
        MomentumEQS            8       4.92957e-10    3.50166e-06     0.0120382
        ContinuityEQS         11       8.59929e-09    3.96192e-05     0.0300241
Mass Balance Review:  
Density accumulation: 0
Integrated inflow:    1.321371397716709e-19
Integrated open:      0
Total mass closure:   1.32137e-19
Realm shall provide output files at : currentTime/timeStepCount: 1.8/18 (fluidRealm)
Mean System Norm: 2.156040861301469e-05 18 1.8
WallClockTime: 18 Pre: 0.179792 NLI: 1.48463 Post: 0.00655007 Total: 1.67097
*******************************************************
Time Step Count: 19 Current Time: 1.9
 dtN: 0.1 dtNm1: 0.1 gammas: 1.5 -2 0.5
 Volume  31.0498 min: 2.36916e-05 max: 0.000427732
 Max Courant: 1.54677 Max Reynolds: 725.428 (fluidRealm)
   Realm Nonlinear Iteration: 1/1

fluidRealm::advance_time_step() 
NLI    Name           Linear Iter      Linear Res     NLinear Res    Scaled NLR
---    ----           -----------      ----------     -----------    ----------
1/3    Equation System Iteration
 1/1      myLowMach
        MomentumEQS            8       4.39656e-08    0.000280516             1
        ContinuityEQS         11       1.77421e-07     0.00124901             1
2/3    Equation System Iteration
 1/1      myLowMach
        MomentumEQS            8       4.54663e-09    2.93291e-05      0.104554
        ContinuityEQS         11       6.11176e-08    0.000256934       0.20571
3/3    Equation System Iteration
 1/1      myLowMach
        MomentumEQS            8       4.96977e-10    3.19422e-06     0.0113869
        ContinuityEQS         11       7.99323e-09    3.64753e-05     0.0292033
Mass Balance Review:  
Density accumulation: 0
Integrated inflow:    -1.355252715606881e-19
Integrated open:      0
Total mass closure:   -1.35525e-19
Realm shall provide output files at : currentTime/timeStepCount: 1.9/19 (fluidRealm)
Mean System Norm: 1.983475296845255e-05 19 1.9
WallClockTime: 19 Pre: 0.180688 NLI: 1.48856 Post: 0.00754023 Total: 1.67679
*******************************************************
Time Step Count: 20 Current Time: 2
 dtN: 0.1 dtNm1: 0.1 gammas: 1.5 -2 0.5
 Volume  31.0503 min: 2.3684e-05 max: 0.000427738
 Max Courant: 1.50729 Max Reynolds: 712.304 (fluidRealm)
   Realm Nonlinear Iteration: 1/1

fluidRealm::advance_time_step() 
NLI    Name           Linear Iter      Linear Res     NLinear Res    Scaled NLR
---    ----           -----------      ----------     -----------    ----------
1/3    Equation System Iteration
 1/1      myLowMach
        MomentumEQS            8       4.13969e-08     0.00027089             1
        ContinuityEQS         11       1.70042e-07     0.00118239             1
2/3    Equation System Iteration
 1/1      myLowMach
        MomentumEQS            8       4.64076e-09    2.75872e-05      0.101839
        ContinuityEQS         11       5.18054e-08    0.000241506      0.204253
3/3    Equation System Iteration
 1/1      myLowMach
        MomentumEQS            8       5.00061e-10    2.92028e-06     0.0107803
        ContinuityEQS         11       6.86655e-09    3.38134e-05     0.0285976
Mass Balance Review:  
Density accumulation: 0
Integrated inflow:    -2.355810384551023e-20
Integrated open:      0
Total mass closure:   -2.35581e-20
Realm shall provide output files at : currentTime/timeStepCount: 2/20 (fluidRealm)
Mean System Norm: 1.836685934799209e-05 20 2
WallClockTime: 20 Pre: 0.174002 NLI: 1.62036 Post: 0.00995207 Total: 1.80432
*******************************************************
Time Step Count: 21 Current Time: 2.1
 dtN: 0.1 dtNm1: 0.1 gammas: 1.5 -2 0.5
 Volume  31.0509 min: 2.36916e-05 max: 0.000427732
 Max Courant: 1.46602 Max Reynolds: 696.527 (fluidRealm)
   Realm Nonlinear Iteration: 1/1

fluidRealm::advance_time_step() 
NLI    Name           Linear Iter      Linear Res     NLinear Res    Scaled NLR
---    ----           -----------      ----------     -----------    ----------
1/3    Equation System Iteration
 1/1      myLowMach
        MomentumEQS            8       4.16418e-08     0.00026196             1
        ContinuityEQS         11       1.47001e-07      0.0011195             1
2/3    Equation System Iteration
 1/1      myLowMach
        MomentumEQS            8       4.27687e-09    2.59693e-05     0.0991345
        ContinuityEQS         11       5.32123e-08    0.000227347      0.203078
3/3    Equation System Iteration
 1/1      myLowMach
        MomentumEQS            8        4.5326e-10    2.67157e-06     0.0101984
        ContinuityEQS         11       6.68652e-09    3.14541e-05     0.0280965
Mass Balance Review:  
Density accumulation: 0
Integrated inflow:    -9.147955830346444e-20
Integrated open:      0
Total mass closure:   -9.14796e-20
Realm shall provide output files at : currentTime/timeStepCount: 2.1/21 (fluidRealm)
Mean System Norm: 1.706285354275787e-05 21 2.1
WallClockTime: 21 Pre: 0.176751 NLI: 1.52147 Post: 0.00737 Total: 1.70559
*******************************************************
Time Step Count: 22 Current Time: 2.2
 dtN: 0.1 dtNm1: 0.1 gammas: 1.5 -2 0.5
 Volume  31.0514 min: 2.37145e-05 max: 0.000427716
 Max Courant: 1.4023 Max Reynolds: 708.303 (fluidRealm)
   Realm Nonlinear Iteration: 1/1

fluidRealm::advance_time_step() 
NLI    Name           Linear Iter      Linear Res     NLinear Res    Scaled NLR
---    ----           -----------      ----------     -----------    ----------
1/3    Equation System Iteration
 1/1      myLowMach
        MomentumEQS            8       3.78315e-08    0.000253696             1
        ContinuityEQS         10       3.90081e-07     0.00106249             1
2/3    Equation System Iteration
 1/1      myLowMach
        MomentumEQS            8       3.71992e-09    2.43974e-05     0.0961679
        ContinuityEQS         11       4.69264e-08    0.000214024      0.201436
3/3    Equation System Iteration
 1/1      myLowMach
        MomentumEQS            8       3.65895e-10    2.45102e-06    0.00966123
        ContinuityEQS         11       6.01215e-09    2.93839e-05     0.0276556
Mass Balance Review:  
Density accumulation: 0
Integrated inflow:    -1.592421940838085e-19
Integrated open:      0
Total mass closure:   -1.59242e-19
Realm shall provide output files at : currentTime/timeStepCount: 2.2/22 (fluidRealm)
Mean System Norm: 1.591745536305446e-05 22 2.2
WallClockTime: 22 Pre: 0.174891 NLI: 1.4985 Post: 0.00844717 Total: 1.68184
*******************************************************
Time Step Count: 23 Current Time: 2.3
 dtN: 0.1 dtNm1: 0.1 gammas: 1.5 -2 0.5
 Volume  31.0519 min: 2.37525e-05 max: 0.000427688
 Max Courant: 1.35276 Max Reynolds: 681.908 (fluidRealm)
   Realm Nonlinear Iteration: 1/1

fluidRealm::advance_time_step() 
NLI    Name           Linear Iter      Linear Res     NLinear Res    Scaled NLR
---    ----           -----------      ----------     -----------    ----------
1/3    Equation System Iteration
 1/1      myLowMach
        MomentumEQS            8       3.40729e-08    0.000245974             1
        ContinuityEQS         11       1.27507e-07     0.00100908             1
2/3    Equation System Iteration
 1/1      myLowMach
        MomentumEQS            8       2.98798e-09    2.30449e-05     0.0936881
        ContinuityEQS         11       3.63068e-08    0.000203509      0.201677
3/3    Equation System Iteration
 1/1      myLowMach
        MomentumEQS            8       2.97758e-10     2.2697e-06    0.00922739
        ContinuityEQS         11        6.4708e-09     2.7674e-05     0.0274249
Mass Balance Review:  
Density accumulation: 0
Integrated inflow:    5.21772295508649e-19
Integrated open:      0
Total mass closure:   5.21772e-19
Realm shall provide output files at : currentTime/timeStepCount: 2.3/23 (fluidRealm)
Mean System Norm: 1.497187118409638e-05 23 2.3
WallClockTime: 23 Pre: 0.17099 NLI: 1.52278 Post: 0.00896716 Total: 1.70273
*******************************************************
Time Step Count: 24 Current Time: 2.4
 dtN: 0.1 dtNm1: 0.1 gammas: 1.5 -2 0.5
 Volume  31.0524 min: 2.37382e-05 max: 0.000427698
 Max Courant: 1.35883 Max Reynolds: 712.532 (fluidRealm)
   Realm Nonlinear Iteration: 1/1

fluidRealm::advance_time_step() 
NLI    Name           Linear Iter      Linear Res     NLinear Res    Scaled NLR
---    ----           -----------      ----------     -----------    ----------
1/3    Equation System Iteration
 1/1      myLowMach
        MomentumEQS            8       2.94353e-08    0.000238703             1
        ContinuityEQS         11       1.22538e-07    0.000960068             1
2/3    Equation System Iteration
 1/1      myLowMach
        MomentumEQS            8       2.59777e-09    2.18355e-05     0.0914756
        ContinuityEQS         11       3.59259e-08    0.000192974         0.201
3/3    Equation System Iteration
 1/1      myLowMach
        MomentumEQS            8       2.53931e-10    2.10764e-06    0.00882953
        ContinuityEQS         11       6.54228e-09    2.61406e-05     0.0272278
Mass Balance Review:  
Density accumulation: 0
Integrated inflow:    -3.930232875259954e-19
Integrated open:      0
Total mass closure:   -3.93023e-19
Realm shall provide output files at : currentTime/timeStepCount: 2.4/24 (fluidRealm)
Mean System Norm: 1.412410363567546e-05 24 2.4
WallClockTime: 24 Pre: 0.205343 NLI: 1.66372 Post: 0.0080049 Total: 1.87706
*******************************************************
Time Step Count: 25 Current Time: 2.5
 dtN: 0.1 dtNm1: 0.1 gammas: 1.5 -2 0.5
 Volume  31.0528 min: 2.37052e-05 max: 0.000427722
 Max Courant: 1.35501 Max Reynolds: 671.14 (fluidRealm)
   Realm Nonlinear Iteration: 1/1

fluidRealm::advance_time_step() 
NLI    Name           Linear Iter      Linear Res     NLinear Res    Scaled NLR
---    ----           -----------      ----------     -----------    ----------
1/3    Equation System Iteration
 1/1      myLowMach
        MomentumEQS            8       2.64653e-08    0.000231902             1
        ContinuityEQS         10       3.35431e-07    0.000914387             1
2/3    Equation System Iteration
 1/1      myLowMach
        MomentumEQS            8        2.1934e-09      2.068e-05     0.0891753
        ContinuityEQS         11       3.45535e-08    0.000183029      0.200166
3/3    Equation System Iteration
 1/1      myLowMach
        MomentumEQS            8       2.02045e-10    1.95506e-06    0.00843055
        ContinuityEQS         11       5.87559e-09    2.45748e-05     0.0268758
Mass Balance Review:  
Density accumulation: 0
Integrated inflow:    -1.558540622947913e-18
Integrated open:      0
Total mass closure:   -1.55854e-18
Realm shall provide output files at : currentTime/timeStepCount: 2.5/25 (fluidRealm)
Mean System Norm: 1.32649507943574e-05 25 2.5
WallClockTime: 25 Pre: 0.18335 NLI: 1.50642 Post: 0.00835514 Total: 1.69812
*******************************************************
Time Step Count: 26 Current Time: 2.6
 dtN: 0.1 dtNm1: 0.1 gammas: 1.5 -2 0.5
 Volume  31.0533 min: 2.36874e-05 max: 0.000427735
 Max Courant: 1.35627 Max Reynolds: 680.606 (fluidRealm)
   Realm Nonlinear Iteration: 1/1

fluidRealm::advance_time_step() 
NLI    Name           Linear Iter      Linear Res     NLinear Res    Scaled NLR
---    ----           -----------      ----------     -----------    ----------
1/3    Equation System Iteration
 1/1      myLowMach
        MomentumEQS            8       2.35108e-08    0.000225594             1
        ContinuityEQS         11       1.11752e-07    0.000871139             1
2/3    Equation System Iteration
 1/1      myLowMach
        MomentumEQS            8       2.07768e-09    1.96343e-05      0.087034
        ContinuityEQS         11       2.94058e-08    0.000174022      0.199764
3/3    Equation System Iteration
 1/1      myLowMach
        MomentumEQS            8       1.85435e-10    1.81053e-06    0.00802562
        ContinuityEQS         11       5.40483e-09    2.29568e-05     0.0263527
Mass Balance Review:  
Density accumulation: 0
Integrated inflow:    0
Integrated open:      0
Total mass closure:   0
Realm shall provide output files at : currentTime/timeStepCount: 2.6/26 (fluidRealm)
Mean System Norm: 1.238368626695516e-05 26 2.6
WallClockTime: 26 Pre: 0.175691 NLI: 1.68263 Post: 0.008039 Total: 1.86636
*******************************************************
Time Step Count: 27 Current Time: 2.7
 dtN: 0.1 dtNm1: 0.1 gammas: 1.5 -2 0.5
 Volume  31.0538 min: 2.36848e-05 max: 0.000427737
 Max Courant: 1.34883 Max Reynolds: 666.179 (fluidRealm)
   Realm Nonlinear Iteration: 1/1

fluidRealm::advance_time_step() 
NLI    Name           Linear Iter      Linear Res     NLinear Res    Scaled NLR
---    ----           -----------      ----------     -----------    ----------
1/3    Equation System Iteration
 1/1      myLowMach
        MomentumEQS            8       2.20548e-08    0.000219739             1
        ContinuityEQS         10       3.44502e-07    0.000831557             1
2/3    Equation System Iteration
 1/1      myLowMach
        MomentumEQS            8       1.79241e-09    1.86315e-05     0.0847896
        ContinuityEQS         11       3.67039e-08    0.000164971      0.198389
3/3    Equation System Iteration
 1/1      myLowMach
        MomentumEQS            8       1.63281e-10    1.68298e-06      0.007659
        ContinuityEQS         11       6.00594e-09    2.16537e-05       0.02604
Mass Balance Review:  
Density accumulation: 0
Integrated inflow:    -3.930232875259954e-19
Integrated open:      0
Total mass closure:   -3.93023e-19
Realm shall provide output files at : currentTime/timeStepCount: 2.7/27 (fluidRealm)
Mean System Norm: 1.166835871071753e-05 27 2.7
WallClockTime: 27 Pre: 0.236189 NLI: 1.80953 Post: 0.00942683 Total: 2.05515
*******************************************************
Time Step Count: 28 Current Time: 2.8
 dtN: 0.1 dtNm1: 0.1 gammas: 1.5 -2 0.5
 Volume  31.0542 min: 2.36976e-05 max: 0.000427728
 Max Courant: 1.3321 Max Reynolds: 672.21 (fluidRealm)
   Realm Nonlinear Iteration: 1/1

fluidRealm::advance_time_step() 
NLI    Name           Linear Iter      Linear Res     NLinear Res    Scaled NLR
---    ----           -----------      ----------     -----------    ----------
1/3    Equation System Iteration
 1/1      myLowMach
        MomentumEQS            8       2.04344e-08    0.000214283             1
        ContinuityEQS         10       3.15435e-07    0.000795394             1
2/3    Equation System Iteration
 1/1      myLowMach
        MomentumEQS            8       1.50946e-09    1.76881e-05     0.0825457
        ContinuityEQS         11       3.64258e-08     0.00015646      0.196708
3/3    Equation System Iteration
 1/1      myLowMach
        MomentumEQS            8       1.46751e-10    1.57455e-06    0.00734799
        ContinuityEQS         11       4.78447e-09    2.05935e-05     0.0258909
Mass Balance Review:  
Density accumulation: 0
Integrated inflow:    -1.287490079826537e-18
Integrated open:      0
Total mass closure:   -1.28749e-18
Realm shall provide output files at : currentTime/timeStepCount: 2.8/28 (fluidRealm)
Mean System Norm: 1.108401399522822e-05 28 2.8
WallClockTime: 28 Pre: 0.239482 NLI: 1.80618 Post: 0.00940609 Total: 2.05507
*******************************************************
Time Step Count: 29 Current Time: 2.9
 dtN: 0.1 dtNm1: 0.1 gammas: 1.5 -2 0.5
 Volume  31.0546 min: 2.37255e-05 max: 0.000427708
 Max Courant: 1.34196 Max Reynolds: 665.934 (fluidRealm)
   Realm Nonlinear Iteration: 1/1

fluidRealm::advance_time_step() 
NLI    Name           Linear Iter      Linear Res     NLinear Res    Scaled NLR
---    ----           -----------      ----------     -----------    ----------
1/3    Equation System Iteration
 1/1      myLowMach
        MomentumEQS            8       1.89596e-08    0.000209165             1
        ContinuityEQS         10       2.74472e-07    0.000761187             1
2/3    Equation System Iteration
 1/1      myLowMach
        MomentumEQS            8       1.46998e-09    1.69032e-05     0.0808125
        ContinuityEQS         11       2.46544e-08    0.000149772       0.19676
3/3    Equation System Iteration
 1/1      myLowMach
        MomentumEQS            8       1.39977e-10    1.48064e-06     0.0070788
        ContinuityEQS         11        4.5604e-09    1.95464e-05     0.0256788
Mass Balance Review:  
Density accumulation: 0
Integrated inflow:    9.486769009248164e-20
Integrated open:      0
Total mass closure:   9.48677e-20
Realm shall provide output files at : currentTime/timeStepCount: 2.9/29 (fluidRealm)
Mean System Norm: 1.051352376265543e-05 29 2.9
WallClockTime: 29 Pre: 0.218762 NLI: 1.75247 Post: 0.0116172 Total: 1.98285
*******************************************************
Time Step Count: 30 Current Time: 3
 dtN: 0.1 dtNm1: 0.1 gammas: 1.5 -2 0.5
 Volume  31.055 min: 2.37685e-05 max: 0.000427676
 Max Courant: 1.3685 Max Reynolds: 662.223 (fluidRealm)
   Realm Nonlinear Iteration: 1/1

fluidRealm::advance_time_step() 
NLI    Name           Linear Iter      Linear Res     NLinear Res    Scaled NLR
---    ----           -----------      ----------     -----------    ----------
1/3    Equation System Iteration
 1/1      myLowMach
        MomentumEQS            8       1.82849e-08    0.000204358             1
        ContinuityEQS         11       9.31853e-08    0.000728558             1
2/3    Equation System Iteration
 1/1      myLowMach
        MomentumEQS            8       1.57372e-09     1.6224e-05     0.0793904
        ContinuityEQS         11       3.24603e-08    0.000144153      0.197861
3/3    Equation System Iteration
 1/1      myLowMach
        MomentumEQS            8       1.45442e-10    1.40013e-06    0.00685138
        ContinuityEQS         11       5.09833e-09    1.86735e-05     0.0256308
Mass Balance Review:  
Density accumulation: 0
Integrated inflow:    1.084202172485504e-19
Integrated open:      0
Total mass closure:   1.0842e-19
Realm shall provide output files at : currentTime/timeStepCount: 3/30 (fluidRealm)
Mean System Norm: 1.003683616333931e-05 30 3
WallClockTime: 30 Pre: 0.246371 NLI: 1.82549 Post: 0.0097611 Total: 2.08162
*******************************************************
Time Step Count: 31 Current Time: 3.1
 dtN: 0.1 dtNm1: 0.1 gammas: 1.5 -2 0.5
 Volume  31.0553 min: 2.37255e-05 max: 0.000427708
 Max Courant: 1.40885 Max Reynolds: 662.061 (fluidRealm)
   Realm Nonlinear Iteration: 1/1

fluidRealm::advance_time_step() 
NLI    Name           Linear Iter      Linear Res     NLinear Res    Scaled NLR
---    ----           -----------      ----------     -----------    ----------
1/3    Equation System Iteration
 1/1      myLowMach
        MomentumEQS            8       1.84443e-08    0.000199892             1
        ContinuityEQS         10       2.79584e-07    0.000698956             1
2/3    Equation System Iteration
 1/1      myLowMach
        MomentumEQS            8       1.50751e-09    1.55806e-05      0.077945
        ContinuityEQS         11       2.31448e-08    0.000138647      0.198363
3/3    Equation System Iteration
 1/1      myLowMach
        MomentumEQS            8       1.52371e-10    1.32792e-06    0.00664317
        ContinuityEQS         11         3.453e-09    1.79581e-05     0.0256928
Mass Balance Review:  
Density accumulation: 0
Integrated inflow:    -2.629190268277348e-18
Integrated open:      0
Total mass closure:   -2.62919e-18
Realm shall provide output files at : currentTime/timeStepCount: 3.1/31 (fluidRealm)
Mean System Norm: 9.643026513271212e-06 31 3.1
WallClockTime: 31 Pre: 0.251932 NLI: 1.8395 Post: 0.014262 Total: 2.1057
*******************************************************
Time Step Count: 32 Current Time: 3.2
 dtN: 0.1 dtNm1: 0.1 gammas: 1.5 -2 0.5
 Volume  31.0556 min: 2.36976e-05 max: 0.000427728
 Max Courant: 1.53381 Max Reynolds: 658.88 (fluidRealm)
   Realm Nonlinear Iteration: 1/1

fluidRealm::advance_time_step() 
NLI    Name           Linear Iter      Linear Res     NLinear Res    Scaled NLR
---    ----           -----------      ----------     -----------    ----------
1/3    Equation System Iteration
 1/1      myLowMach
        MomentumEQS            8         1.777e-08    0.000195779             1
        ContinuityEQS         10       2.28253e-07    0.000673036             1
2/3    Equation System Iteration
 1/1      myLowMach
        MomentumEQS            8       1.35383e-09    1.49344e-05      0.076282
        ContinuityEQS         11       2.63557e-08    0.000133358      0.198144
3/3    Equation System Iteration
 1/1      myLowMach
        MomentumEQS            8       1.39378e-10    1.25962e-06     0.0064339
        ContinuityEQS         11       4.35981e-09    1.72928e-05     0.0256937
Mass Balance Review:  
Density accumulation: 0
Integrated inflow:    1.938011383317839e-18
Integrated open:      0
Total mass closure:   1.93801e-18
Realm shall provide output files at : currentTime/timeStepCount: 3.2/32 (fluidRealm)
Mean System Norm: 9.276207306921454e-06 32 3.2
WallClockTime: 32 Pre: 0.305308 NLI: 1.9187 Post: 0.0126212 Total: 2.23663
*******************************************************
Time Step Count: 33 Current Time: 3.3
 dtN: 0.1 dtNm1: 0.1 gammas: 1.5 -2 0.5
 Volume  31.0559 min: 2.36848e-05 max: 0.000427737
 Max Courant: 1.63398 Max Reynolds: 653.528 (fluidRealm)
   Realm Nonlinear Iteration: 1/1

fluidRealm::advance_time_step() 
NLI    Name           Linear Iter      Linear Res     NLinear Res    Scaled NLR
---    ----           -----------      ----------     -----------    ----------
1/3    Equation System Iteration
 1/1      myLowMach
        MomentumEQS            8       1.75599e-08    0.000191961             1
        ContinuityEQS         10       2.16264e-07    0.000648896             1
2/3    Equation System Iteration
 1/1      myLowMach
        MomentumEQS            8         1.308e-09    1.42792e-05     0.0743857
        ContinuityEQS         11       2.39418e-08    0.000128172      0.197523
3/3    Equation System Iteration
 1/1      myLowMach
        MomentumEQS            8       1.21102e-10    1.19448e-06     0.0062225
        ContinuityEQS         11       5.45592e-09    1.66139e-05     0.0256034
Mass Balance Review:  
Density accumulation: 0
Integrated inflow:    1.192622389734055e-18
Integrated open:      0
Total mass closure:   1.19262e-18
Realm shall provide output files at : currentTime/timeStepCount: 3.3/33 (fluidRealm)
Mean System Norm: 8.904197503535366e-06 33 3.3
WallClockTime: 33 Pre: 0.278418 NLI: 2.07375 Post: 0.012964 Total: 2.36513
*******************************************************
Time Step Count: 34 Current Time: 3.4
 dtN: 0.1 dtNm1: 0.1 gammas: 1.5 -2 0.5
 Volume  31.0562 min: 2.36874e-05 max: 0.000427735
 Max Courant: 1.70872 Max Reynolds: 650.586 (fluidRealm)
   Realm Nonlinear Iteration: 1/1

fluidRealm::advance_time_step() 
NLI    Name           Linear Iter      Linear Res     NLinear Res    Scaled NLR
---    ----           -----------      ----------     -----------    ----------
1/3    Equation System Iteration
 1/1      myLowMach
        MomentumEQS            8       1.68338e-08    0.000188344             1
        ContinuityEQS         10       2.51161e-07    0.000624317             1
2/3    Equation System Iteration
 1/1      myLowMach
        MomentumEQS            8       1.15179e-09    1.36958e-05     0.0727173
        ContinuityEQS         11       3.05712e-08    0.000123145      0.197248
3/3    Equation System Iteration
 1/1      myLowMach
        MomentumEQS            8       1.06329e-10    1.12779e-06    0.00598796
        ContinuityEQS         11       4.16863e-09    1.58391e-05     0.0253703
Mass Balance Review:  
Density accumulation: 0
Integrated inflow:    1.355252715606881e-19
Integrated open:      0
Total mass closure:   1.35525e-19
Realm shall provide output files at : currentTime/timeStepCount: 3.4/34 (fluidRealm)
Mean System Norm: 8.483449346486391e-06 34 3.4
WallClockTime: 34 Pre: 0.283922 NLI: 2.04618 Post: 0.0121729 Total: 2.34227
*******************************************************
Time Step Count: 35 Current Time: 3.5
 dtN: 0.1 dtNm1: 0.1 gammas: 1.5 -2 0.5
 Volume  31.0564 min: 2.37052e-05 max: 0.000427722
 Max Courant: 1.76029 Max Reynolds: 641.368 (fluidRealm)
   Realm Nonlinear Iteration: 1/1

fluidRealm::advance_time_step() 
NLI    Name           Linear Iter      Linear Res     NLinear Res    Scaled NLR
---    ----           -----------      ----------     -----------    ----------
1/3    Equation System Iteration
 1/1      myLowMach
        MomentumEQS            8       1.53788e-08    0.000184876             1
        ContinuityEQS         11       7.48954e-08    0.000600029             1
2/3    Equation System Iteration
 1/1      myLowMach
        MomentumEQS            8       1.06358e-09    1.31797e-05     0.0712897
        ContinuityEQS         11       2.77603e-08    0.000118014      0.196681
3/3    Equation System Iteration
 1/1      myLowMach
        MomentumEQS            8       9.59263e-11    1.06786e-06     0.0057761
        ContinuityEQS         11       4.38947e-09    1.50671e-05     0.0251107
Mass Balance Review:  
Density accumulation: 0
Integrated inflow:    -9.486769009248164e-19
Integrated open:      0
Total mass closure:   -9.48677e-19
Realm shall provide output files at : currentTime/timeStepCount: 3.5/35 (fluidRealm)
Mean System Norm: 8.067500391849119e-06 35 3.5
WallClockTime: 35 Pre: 0.35731 NLI: 2.54104 Post: 0.016855 Total: 2.91521
*******************************************************
Time Step Count: 36 Current Time: 3.6
 dtN: 0.1 dtNm1: 0.1 gammas: 1.5 -2 0.5
 Volume  31.0566 min: 2.37382e-05 max: 0.000427698
 Max Courant: 1.76955 Max Reynolds: 646.293 (fluidRealm)
   Realm Nonlinear Iteration: 1/1

fluidRealm::advance_time_step() 
NLI    Name           Linear Iter      Linear Res     NLinear Res    Scaled NLR
---    ----           -----------      ----------     -----------    ----------
1/3    Equation System Iteration
 1/1      myLowMach
        MomentumEQS            8       1.43229e-08    0.000181581             1
        ContinuityEQS         11        8.0072e-08    0.000577581             1
2/3    Equation System Iteration
 1/1      myLowMach
        MomentumEQS            8       9.76998e-10     1.2668e-05      0.069765
        ContinuityEQS         11       3.07855e-08    0.000113064      0.195755
3/3    Equation System Iteration
 1/1      myLowMach
        MomentumEQS            8         9.265e-11    1.02053e-06    0.00562026
        ContinuityEQS         11       4.33358e-09    1.45269e-05     0.0251512
Mass Balance Review:  
Density accumulation: 0
Integrated inflow:    4.336808689942018e-19
Integrated open:      0
Total mass closure:   4.33681e-19
Realm shall provide output files at : currentTime/timeStepCount: 3.6/36 (fluidRealm)
Mean System Norm: 7.773699317089525e-06 36 3.6
WallClockTime: 36 Pre: 0.373124 NLI: 2.64409 Post: 0.0183868 Total: 3.0356
*******************************************************
Time Step Count: 37 Current Time: 3.7
 dtN: 0.1 dtNm1: 0.1 gammas: 1.5 -2 0.5
 Volume  31.0567 min: 2.37525e-05 max: 0.000427688
 Max Courant: 1.73474 Max Reynolds: 635.998 (fluidRealm)
   Realm Nonlinear Iteration: 1/1

fluidRealm::advance_time_step() 
NLI    Name           Linear Iter      Linear Res     NLinear Res    Scaled NLR
---    ----           -----------      ----------     -----------    ----------
1/3    Equation System Iteration
 1/1      myLowMach
        MomentumEQS            8       1.36302e-08    0.000178489             1
        ContinuityEQS         11       7.43406e-08    0.000556305             1
2/3    Equation System Iteration
 1/1      myLowMach
        MomentumEQS            8       9.10746e-10    1.21481e-05     0.0680608
        ContinuityEQS         11       2.97131e-08    0.000108543      0.195114
3/3    Equation System Iteration
 1/1      myLowMach
        MomentumEQS            8       8.94687e-11    9.77908e-07    0.00547882
        ContinuityEQS         11       4.80242e-09    1.41564e-05     0.0254471
Mass Balance Review:  
Density accumulation: 0
Integrated inflow:    -7.589415207398531e-19
Integrated open:      0
Total mass closure:   -7.58942e-19
Realm shall provide output files at : currentTime/timeStepCount: 3.7/37 (fluidRealm)
Mean System Norm: 7.567130066660639e-06 37 3.7
WallClockTime: 37 Pre: 0.391633 NLI: 3.10906 Post: 0.021435 Total: 3.52213
*******************************************************
Time Step Count: 38 Current Time: 3.8
 dtN: 0.1 dtNm1: 0.1 gammas: 1.5 -2 0.5
 Volume  31.0568 min: 2.37145e-05 max: 0.000427716
 Max Courant: 1.66392 Max Reynolds: 634.769 (fluidRealm)
   Realm Nonlinear Iteration: 1/1

fluidRealm::advance_time_step() 
NLI    Name           Linear Iter      Linear Res     NLinear Res    Scaled NLR
---    ----           -----------      ----------     -----------    ----------
1/3    Equation System Iteration
 1/1      myLowMach
        MomentumEQS            8       1.30711e-08    0.000175587             1
        ContinuityEQS         11       6.63674e-08    0.000535155             1
2/3    Equation System Iteration
 1/1      myLowMach
        MomentumEQS            8       8.70763e-10    1.16787e-05     0.0665123
        ContinuityEQS         11       2.07288e-08     0.00010473        0.1957
3/3    Equation System Iteration
 1/1      myLowMach
        MomentumEQS            8        8.3075e-11    9.35206e-07    0.00532615
        ContinuityEQS         11       4.38014e-09    1.37285e-05     0.0256533
Mass Balance Review:  
Density accumulation: 0
Integrated inflow:    1.13841228110978e-18
Integrated open:      0
Total mass closure:   1.13841e-18
Realm shall provide output files at : currentTime/timeStepCount: 3.8/38 (fluidRealm)
Mean System Norm: 7.331844264814536e-06 38 3.8
WallClockTime: 38 Pre: 0.435661 NLI: 3.23263 Post: 0.0223589 Total: 3.69065
*******************************************************
Time Step Count: 39 Current Time: 3.9
 dtN: 0.1 dtNm1: 0.1 gammas: 1.5 -2 0.5
 Volume  31.0569 min: 2.36916e-05 max: 0.000427732
 Max Courant: 1.55395 Max Reynolds: 631.62 (fluidRealm)
   Realm Nonlinear Iteration: 1/1

fluidRealm::advance_time_step() 
NLI    Name           Linear Iter      Linear Res     NLinear Res    Scaled NLR
---    ----           -----------      ----------     -----------    ----------
1/3    Equation System Iteration
 1/1      myLowMach
        MomentumEQS            8       1.25576e-08    0.000172843             1
        ContinuityEQS         11       6.91186e-08    0.000515784             1
2/3    Equation System Iteration
 1/1      myLowMach
        MomentumEQS            8       7.94327e-10    1.12892e-05     0.0653147
        ContinuityEQS         11       2.63398e-08    0.000101266      0.196333
3/3    Equation System Iteration
 1/1      myLowMach
        MomentumEQS            8       7.85657e-11    8.97808e-07    0.00519436
        ContinuityEQS         11       4.08584e-09    1.32378e-05     0.0256654
Mass Balance Review:  
Density accumulation: 0
Integrated inflow:    7.589415207398531e-19
Integrated open:      0
Total mass closure:   7.58942e-19
Realm shall provide output files at : currentTime/timeStepCount: 3.9/39 (fluidRealm)
Mean System Norm: 7.067812370427319e-06 39 3.9
WallClockTime: 39 Pre: 0.48183 NLI: 3.50435 Post: 0.0272479 Total: 4.01342
*******************************************************
Time Step Count: 40 Current Time: 4
 dtN: 0.1 dtNm1: 0.1 gammas: 1.5 -2 0.5
 Volume  31.0569 min: 2.3684e-05 max: 0.000427738
 Max Courant: 1.42229 Max Reynolds: 629.255 (fluidRealm)
   Realm Nonlinear Iteration: 1/1

fluidRealm::advance_time_step() 
NLI    Name           Linear Iter      Linear Res     NLinear Res    Scaled NLR
---    ----           -----------      ----------     -----------    ----------
1/3    Equation System Iteration
 1/1      myLowMach
        MomentumEQS            7       7.07006e-08    0.000170233             1
        ContinuityEQS         11       6.57883e-08     0.00049894             1
2/3    Equation System Iteration
 1/1      myLowMach
        MomentumEQS            7       4.29306e-09    1.09267e-05     0.0641868
        ContinuityEQS         11       2.16675e-08    9.75665e-05      0.195547
3/3    Equation System Iteration
 1/1      myLowMach
        MomentumEQS            8       7.33473e-11    8.64951e-07    0.00508099
        ContinuityEQS         11       4.11698e-09    1.27787e-05     0.0256116
Mass Balance Review:  
Density accumulation: 0
Integrated inflow:    -2.981555974335137e-19
Integrated open:      0
Total mass closure:   -2.98156e-19
Realm shall provide output files at : currentTime/timeStepCount: 4/40 (fluidRealm)
Mean System Norm: 6.821818558349149e-06 40 4
WallClockTime: 40 Pre: 0.602883 NLI: 3.84415 Post: 0.0271661 Total: 4.4742
*******************************************************
Time Step Count: 41 Current Time: 4.1
 dtN: 0.1 dtNm1: 0.1 gammas: 1.5 -2 0.5
 Volume  31.0569 min: 2.36916e-05 max: 0.000427732
 Max Courant: 1.29525 Max Reynolds: 623.175 (fluidRealm)
   Realm Nonlinear Iteration: 1/1

fluidRealm::advance_time_step() 
NLI    Name           Linear Iter      Linear Res     NLinear Res    Scaled NLR
---    ----           -----------      ----------     -----------    ----------
1/3    Equation System Iteration
 1/1      myLowMach
        MomentumEQS            7       6.63935e-08    0.000167764             1
        ContinuityEQS         11       6.25556e-08    0.000482471             1
2/3    Equation System Iteration
 1/1      myLowMach
        MomentumEQS            7       4.23359e-09    1.05511e-05     0.0628926
        ContinuityEQS         11       2.62255e-08    9.42526e-05      0.195354
3/3    Equation System Iteration
 1/1      myLowMach
        MomentumEQS            8       6.58946e-11    8.32491e-07    0.00496229
        ContinuityEQS         11       4.65972e-09    1.23745e-05     0.0256481
Mass Balance Review:  
Density accumulation: 0
Integrated inflow:    -8.131516293641283e-20
Integrated open:      0
Total mass closure:   -8.13152e-20
Realm shall provide output files at : currentTime/timeStepCount: 4.1/41 (fluidRealm)
Mean System Norm: 6.603480144878996e-06 41 4.1
WallClockTime: 41 Pre: 0.672512 NLI: 3.95065 Post: 0.0262671 Total: 4.64943
*******************************************************
Time Step Count: 42 Current Time: 4.2
 dtN: 0.1 dtNm1: 0.1 gammas: 1.5 -2 0.5
 Volume  31.0568 min: 2.37145e-05 max: 0.000427716
 Max Courant: 1.27179 Max Reynolds: 632.615 (fluidRealm)
   Realm Nonlinear Iteration: 1/1

fluidRealm::advance_time_step() 
NLI    Name           Linear Iter      Linear Res     NLinear Res    Scaled NLR
---    ----           -----------      ----------     -----------    ----------
1/3    Equation System Iteration
 1/1      myLowMach
        MomentumEQS            7        6.3395e-08    0.000165453             1
        ContinuityEQS         11       6.51337e-08    0.000466196             1
2/3    Equation System Iteration
 1/1      myLowMach
        MomentumEQS            7       3.90805e-09    1.01951e-05     0.0616192
        ContinuityEQS         11       2.16863e-08    9.12578e-05       0.19575
3/3    Equation System Iteration
 1/1      myLowMach
        MomentumEQS            8       6.08616e-11    8.00193e-07    0.00483638
        ContinuityEQS         11       4.00287e-09    1.19696e-05      0.025675
Mass Balance Review:  
Density accumulation: 0
Integrated inflow:    -7.589415207398531e-19
Integrated open:      0
Total mass closure:   -7.58942e-19
Realm shall provide output files at : currentTime/timeStepCount: 4.2/42 (fluidRealm)
Mean System Norm: 6.384889205120705e-06 42 4.2
WallClockTime: 42 Pre: 0.578875 NLI: 3.90849 Post: 0.0267169 Total: 4.51408
*******************************************************
Time Step Count: 43 Current Time: 4.3
 dtN: 0.1 dtNm1: 0.1 gammas: 1.5 -2 0.5
 Volume  31.0567 min: 2.37525e-05 max: 0.000427688
 Max Courant: 1.3133 Max Reynolds: 621.193 (fluidRealm)
   Realm Nonlinear Iteration: 1/1

fluidRealm::advance_time_step() 
NLI    Name           Linear Iter      Linear Res     NLinear Res    Scaled NLR
---    ----           -----------      ----------     -----------    ----------
1/3    Equation System Iteration
 1/1      myLowMach
        MomentumEQS            7       6.08211e-08    0.000163301             1
        ContinuityEQS         11       6.54413e-08    0.000451907             1
2/3    Equation System Iteration
 1/1      myLowMach
        MomentumEQS            7       3.63041e-09    9.86155e-06      0.060389
        ContinuityEQS         11       2.60484e-08    8.81968e-05      0.195166
3/3    Equation System Iteration
 1/1      myLowMach
        MomentumEQS            8       5.72009e-11    7.71728e-07    0.00472581
        ContinuityEQS         11       3.98818e-09    1.16009e-05     0.0256709
Mass Balance Review:  
Density accumulation: 0
Integrated inflow:    -5.692061405548898e-19
Integrated open:      0
Total mass closure:   -5.69206e-19
Realm shall provide output files at : currentTime/timeStepCount: 4.3/43 (fluidRealm)
Mean System Norm: 6.186294531989924e-06 43 4.3
WallClockTime: 43 Pre: 0.580694 NLI: 3.95806 Post: 0.0236571 Total: 4.56241
*******************************************************
Time Step Count: 44 Current Time: 4.4
 dtN: 0.1 dtNm1: 0.1 gammas: 1.5 -2 0.5
 Volume  31.0566 min: 2.37382e-05 max: 0.000427698
 Max Courant: 1.35496 Max Reynolds: 620.989 (fluidRealm)
   Realm Nonlinear Iteration: 1/1

fluidRealm::advance_time_step() 
NLI    Name           Linear Iter      Linear Res     NLinear Res    Scaled NLR
---    ----           -----------      ----------     -----------    ----------
1/3    Equation System Iteration
 1/1      myLowMach
        MomentumEQS            7       5.75112e-08    0.000161291             1
        ContinuityEQS         11        6.4384e-08    0.000439389             1
2/3    Equation System Iteration
 1/1      myLowMach
        MomentumEQS            7       3.47489e-09    9.54614e-06     0.0591858
        ContinuityEQS         11       2.51152e-08    8.56339e-05      0.194893
3/3    Equation System Iteration
 1/1      myLowMach
        MomentumEQS            8       5.45328e-11    7.48011e-07    0.00463765
        ContinuityEQS         11       4.28269e-09     1.1341e-05     0.0258109
Mass Balance Review:  
Density accumulation: 0
Integrated inflow:    8.131516293641283e-20
Integrated open:      0
Total mass closure:   8.13152e-20
Realm shall provide output files at : currentTime/timeStepCount: 4.4/44 (fluidRealm)
Mean System Norm: 6.044526601563974e-06 44 4.4
WallClockTime: 44 Pre: 0.544701 NLI: 3.46321 Post: 0.0247169 Total: 4.03262
*******************************************************
Time Step Count: 45 Current Time: 4.5
 dtN: 0.1 dtNm1: 0.1 gammas: 1.5 -2 0.5
 Volume  31.0564 min: 2.37052e-05 max: 0.000427722
 Max Courant: 1.39085 Max Reynolds: 620.702 (fluidRealm)
   Realm Nonlinear Iteration: 1/1

fluidRealm::advance_time_step() 
NLI    Name           Linear Iter      Linear Res     NLinear Res    Scaled NLR
---    ----           -----------      ----------     -----------    ----------
1/3    Equation System Iteration
 1/1      myLowMach
        MomentumEQS            7       5.48543e-08    0.000159399             1
        ContinuityEQS         11       5.60819e-08    0.000427513             1
2/3    Equation System Iteration
 1/1      myLowMach
        MomentumEQS            7       3.51478e-09    9.28941e-06     0.0582778
        ContinuityEQS         11       2.17542e-08    8.35293e-05      0.195384
3/3    Equation System Iteration
 1/1      myLowMach
        MomentumEQS            8       5.47055e-11     7.2603e-07     0.0045548
        ContinuityEQS         11       3.50544e-09    1.10738e-05     0.0259029
Mass Balance Review:  
Density accumulation: 0
Integrated inflow:    1.463672932855431e-18
Integrated open:      0
Total mass closure:   1.46367e-18
Realm shall provide output files at : currentTime/timeStepCount: 4.5/45 (fluidRealm)
Mean System Norm: 5.899933834261361e-06 45 4.5
WallClockTime: 45 Pre: 0.504553 NLI: 3.00979 Post: 0.020824 Total: 3.53517
*******************************************************
Time Step Count: 46 Current Time: 4.6
 dtN: 0.1 dtNm1: 0.1 gammas: 1.5 -2 0.5
 Volume  31.0562 min: 2.36874e-05 max: 0.000427735
 Max Courant: 1.41572 Max Reynolds: 623.651 (fluidRealm)
   Realm Nonlinear Iteration: 1/1

fluidRealm::advance_time_step() 
NLI    Name           Linear Iter      Linear Res     NLinear Res    Scaled NLR
---    ----           -----------      ----------     -----------    ----------
1/3    Equation System Iteration
 1/1      myLowMach
        MomentumEQS            7       5.40522e-08    0.000157611             1
        ContinuityEQS         10       1.63941e-07    0.000415495             1
2/3    Equation System Iteration
 1/1      myLowMach
        MomentumEQS            7       3.44733e-09    9.04564e-06     0.0573923
        ContinuityEQS         11       1.78705e-08    8.13782e-05      0.195858
3/3    Equation System Iteration
 1/1      myLowMach
        MomentumEQS            8       5.58888e-11    7.06753e-07    0.00448417
        ContinuityEQS         11       3.54064e-09    1.07908e-05     0.0259709
Mass Balance Review:  
Density accumulation: 0
Integrated inflow:    -1.897353801849633e-19
Integrated open:      0
Total mass closure:   -1.89735e-19
Realm shall provide output files at : currentTime/timeStepCount: 4.6/46 (fluidRealm)
Mean System Norm: 5.748774258613682e-06 46 4.6
WallClockTime: 46 Pre: 0.422996 NLI: 2.64464 Post: 0.0155578 Total: 3.08319
*******************************************************
Time Step Count: 47 Current Time: 4.7
 dtN: 0.1 dtNm1: 0.1 gammas: 1.5 -2 0.5
 Volume  31.0559 min: 2.36848e-05 max: 0.000427737
 Max Courant: 1.428 Max Reynolds: 623.13 (fluidRealm)
   Realm Nonlinear Iteration: 1/1

fluidRealm::advance_time_step() 
NLI    Name           Linear Iter      Linear Res     NLinear Res    Scaled NLR
---    ----           -----------      ----------     -----------    ----------
1/3    Equation System Iteration
 1/1      myLowMach
        MomentumEQS            7        5.3918e-08    0.000155935             1
        ContinuityEQS         11       5.30835e-08    0.000403766             1
2/3    Equation System Iteration
 1/1      myLowMach
        MomentumEQS            7       3.40912e-09    8.76067e-06     0.0561814
        ContinuityEQS         11       2.03777e-08    7.90081e-05      0.195678
3/3    Equation System Iteration
 1/1      myLowMach
        MomentumEQS            8       5.55438e-11    6.88973e-07    0.00441833
        ContinuityEQS         11       4.09856e-09    1.05929e-05     0.0262353
Mass Balance Review:  
Density accumulation: 0
Integrated inflow:    2.710505431213761e-19
Integrated open:      0
Total mass closure:   2.71051e-19
Realm shall provide output files at : currentTime/timeStepCount: 4.7/47 (fluidRealm)
Mean System Norm: 5.640946647445132e-06 47 4.7
WallClockTime: 47 Pre: 0.367514 NLI: 2.57125 Post: 0.0135391 Total: 2.9523
*******************************************************
Time Step Count: 48 Current Time: 4.8
 dtN: 0.1 dtNm1: 0.1 gammas: 1.5 -2 0.5
 Volume  31.0556 min: 2.36976e-05 max: 0.000427728
 Max Courant: 1.42777 Max Reynolds: 627.401 (fluidRealm)
   Realm Nonlinear Iteration: 1/1

fluidRealm::advance_time_step() 
NLI    Name           Linear Iter      Linear Res     NLinear Res    Scaled NLR
---    ----           -----------      ----------     -----------    ----------
1/3    Equation System Iteration
 1/1      myLowMach
        MomentumEQS            7        5.4109e-08     0.00015436             1
        ContinuityEQS         11       4.85584e-08    0.000393224             1
2/3    Equation System Iteration
 1/1      myLowMach
        MomentumEQS            7       3.48665e-09    8.49971e-06     0.0550642
        ContinuityEQS         11       1.76089e-08    7.66304e-05      0.194877
3/3    Equation System Iteration
 1/1      myLowMach
        MomentumEQS            8       5.63231e-11    6.70228e-07    0.00434198
        ContinuityEQS         11       3.58454e-09    1.04218e-05     0.0265034
Mass Balance Review:  
Density accumulation: 0
Integrated inflow:    -2.710505431213761e-18
Integrated open:      0
Total mass closure:   -2.71051e-18
Realm shall provide output files at : currentTime/timeStepCount: 4.8/48 (fluidRealm)
Mean System Norm: 5.546004794259274e-06 48 4.8
WallClockTime: 48 Pre: 0.404432 NLI: 2.28724 Post: 0.0167019 Total: 2.70837
*******************************************************
Time Step Count: 49 Current Time: 4.9
 dtN: 0.1 dtNm1: 0.1 gammas: 1.5 -2 0.5
 Volume  31.0553 min: 2.37255e-05 max: 0.000427708
 Max Courant: 1.41665 Max Reynolds: 622.561 (fluidRealm)
   Realm Nonlinear Iteration: 1/1

fluidRealm::advance_time_step() 
NLI    Name           Linear Iter      Linear Res     NLinear Res    Scaled NLR
---    ----           -----------      ----------     -----------    ----------
1/3    Equation System Iteration
 1/1      myLowMach
        MomentumEQS            7       5.63846e-08    0.000152843             1
        ContinuityEQS         10       1.54796e-07     0.00038326             1
2/3    Equation System Iteration
 1/1      myLowMach
        MomentumEQS            8       5.88641e-10    8.28357e-06     0.0541965
        ContinuityEQS         11       2.17102e-08    7.44562e-05      0.194271
3/3    Equation System Iteration
 1/1      myLowMach
        MomentumEQS            8       5.84843e-11    6.53888e-07    0.00427816
        ContinuityEQS         11       3.46773e-09     1.0227e-05     0.0266843
Mass Balance Review:  
Density accumulation: 0
Integrated inflow:    7.047314121155779e-19
Integrated open:      0
Total mass closure:   7.04731e-19
Realm shall provide output files at : currentTime/timeStepCount: 4.9/49 (fluidRealm)
Mean System Norm: 5.440453448506313e-06 49 4.9
WallClockTime: 49 Pre: 0.32437 NLI: 2.28248 Post: 0.014518 Total: 2.62136
*******************************************************
Time Step Count: 50 Current Time: 5
 dtN: 0.1 dtNm1: 0.1 gammas: 1.5 -2 0.5
 Volume  31.055 min: 2.37685e-05 max: 0.000427676
 Max Courant: 1.39844 Max Reynolds: 620.55 (fluidRealm)
   Realm Nonlinear Iteration: 1/1

fluidRealm::advance_time_step() 
NLI    Name           Linear Iter      Linear Res     NLinear Res    Scaled NLR
---    ----           -----------      ----------     -----------    ----------
1/3    Equation System Iteration
 1/1      myLowMach
        MomentumEQS            7       5.76363e-08    0.000151368             1
        ContinuityEQS         11       6.08616e-08    0.000373402             1
2/3    Equation System Iteration
 1/1      myLowMach
        MomentumEQS            8        6.4261e-10    8.07647e-06     0.0533566
        ContinuityEQS         11       2.62018e-08    7.23584e-05      0.193781
3/3    Equation System Iteration
 1/1      myLowMach
        MomentumEQS            8       6.39806e-11    6.38372e-07    0.00421736
        ContinuityEQS         11       4.06331e-09    1.00198e-05     0.0268339
Mass Balance Review:  
Density accumulation: 0
Integrated inflow:    -1.219727444046192e-19
Integrated open:      0
Total mass closure:   -1.21973e-19
Realm shall provide output files at : currentTime/timeStepCount: 5/50 (fluidRealm)
Mean System Norm: 5.329108282485991e-06 50 5
WallClockTime: 50 Pre: 0.318176 NLI: 2.16402 Post: 0.014467 Total: 2.49666
*******************************************************
Time Step Count: 51 Current Time: 5.1
 dtN: 0.1 dtNm1: 0.1 gammas: 1.5 -2 0.5
 Volume  31.0546 min: 2.37255e-05 max: 0.000427708
 Max Courant: 1.39088 Max Reynolds: 623.566 (fluidRealm)
   Realm Nonlinear Iteration: 1/1

fluidRealm::advance_time_step() 
NLI    Name           Linear Iter      Linear Res     NLinear Res    Scaled NLR
---    ----           -----------      ----------     -----------    ----------
1/3    Equation System Iteration
 1/1      myLowMach
        MomentumEQS            7       5.68958e-08     0.00014995             1
        ContinuityEQS         11       6.08568e-08    0.000364272             1
2/3    Equation System Iteration
 1/1      myLowMach
        MomentumEQS            8       6.94174e-10    7.87574e-06     0.0525225
        ContinuityEQS         11       2.11983e-08    7.05455e-05      0.193662
3/3    Equation System Iteration
 1/1      myLowMach
        MomentumEQS            8       6.98397e-11    6.22902e-07    0.00415407
        ContinuityEQS         11       3.34836e-09    9.83333e-06     0.0269945
Mass Balance Review:  
Density accumulation: 0
Integrated inflow:    -2.114194236346734e-18
Integrated open:      0
Total mass closure:   -2.11419e-18
Realm shall provide output files at : currentTime/timeStepCount: 5.1/51 (fluidRealm)
Mean System Norm: 5.228116239822636e-06 51 5.1
WallClockTime: 51 Pre: 0.301882 NLI: 2.07111 Post: 0.0144088 Total: 2.3874
*******************************************************
Time Step Count: 52 Current Time: 5.2
 dtN: 0.1 dtNm1: 0.1 gammas: 1.5 -2 0.5
 Volume  31.0542 min: 2.36976e-05 max: 0.000427728
 Max Courant: 1.40095 Max Reynolds: 619.693 (fluidRealm)
   Realm Nonlinear Iteration: 1/1

fluidRealm::advance_time_step() 
NLI    Name           Linear Iter      Linear Res     NLinear Res    Scaled NLR
[...]
 Volume  31.0465 min: 2.36976e-05 max: 0.000427728
 Max Courant: 1.09814 Max Reynolds: 610.079 (fluidRealm)
   Realm Nonlinear Iteration: 1/1

fluidRealm::advance_time_step() 
NLI    Name           Linear Iter      Linear Res     NLinear Res    Scaled NLR
---    ----           -----------      ----------     -----------    ----------
1/3    Equation System Iteration
 1/1      myLowMach
        MomentumEQS            7       3.78886e-08    0.000126454             1
        ContinuityEQS         11       3.69626e-08    0.000199202             1
2/3    Equation System Iteration
 1/1      myLowMach
        MomentumEQS            7       1.79466e-09    4.61787e-06     0.0365182
        ContinuityEQS         12       6.07624e-09    3.99265e-05      0.200432
3/3    Equation System Iteration
 1/1      myLowMach
        MomentumEQS            8       2.89283e-11    4.05461e-07     0.0032064
        ContinuityEQS         11       2.20743e-09    6.97467e-06      0.035013
Mass Balance Review:  
Density accumulation: 0
Integrated inflow:    8.809142651444724e-19
Integrated open:      0
Total mass closure:   8.80914e-19
Realm shall provide output files at : currentTime/timeStepCount: 9.2/92 (fluidRealm)
Mean System Norm: 3.690068040850044e-06 92 9.2
WallClockTime: 92 Pre: 0.370448 NLI: 2.21819 Post: 0.0160432 Total: 2.60468
*******************************************************
Time Step Count: 93 Current Time: 9.3
 dtN: 0.1 dtNm1: 0.1 gammas: 1.5 -2 0.5
 Volume  31.0469 min: 2.36848e-05 max: 0.000427737
 Max Courant: 1.093 Max Reynolds: 607.222 (fluidRealm)
   Realm Nonlinear Iteration: 1/1

fluidRealm::advance_time_step() 
NLI    Name           Linear Iter      Linear Res     NLinear Res    Scaled NLR
---    ----           -----------      ----------     -----------    ----------
1/3    Equation System Iteration
 1/1      myLowMach
        MomentumEQS            7       3.58431e-08     0.00012627             1
        ContinuityEQS         11       3.74771e-08    0.000197643             1
2/3    Equation System Iteration
 1/1      myLowMach
        MomentumEQS            8       3.06309e-10    4.59548e-06      0.036394
        ContinuityEQS         12       5.98019e-09    3.96874e-05      0.200803
3/3    Equation System Iteration
 1/1      myLowMach
        MomentumEQS            8        3.0532e-11    4.02815e-07     0.0031901
        ContinuityEQS         11       2.83498e-09    6.94249e-06     0.0351264
Mass Balance Review:  
Density accumulation: 0
Integrated inflow:    8.402566836762659e-19
Integrated open:      0
Total mass closure:   8.40257e-19
Realm shall provide output files at : currentTime/timeStepCount: 9.3/93 (fluidRealm)
Mean System Norm: 3.672653162256755e-06 93 9.3
WallClockTime: 93 Pre: 0.311268 NLI: 2.21885 Post: 0.016113 Total: 2.54623
*******************************************************
Time Step Count: 94 Current Time: 9.4
 dtN: 0.1 dtNm1: 0.1 gammas: 1.5 -2 0.5
 Volume  31.0474 min: 2.36874e-05 max: 0.000427735
 Max Courant: 1.08624 Max Reynolds: 603.47 (fluidRealm)
   Realm Nonlinear Iteration: 1/1

fluidRealm::advance_time_step() 
NLI    Name           Linear Iter      Linear Res     NLinear Res    Scaled NLR
---    ----           -----------      ----------     -----------    ----------
1/3    Equation System Iteration
 1/1      myLowMach
        MomentumEQS            7       3.76649e-08    0.000126096             1
        ContinuityEQS         11       3.93419e-08      0.0001963             1
2/3    Equation System Iteration
 1/1      myLowMach
        MomentumEQS            8       3.46447e-10    4.57044e-06     0.0362458
        ContinuityEQS         12       5.93325e-09    3.95882e-05      0.201672
3/3    Equation System Iteration
 1/1      myLowMach
        MomentumEQS            8       3.50838e-11    4.00857e-07    0.00317899
        ContinuityEQS         11       2.90034e-09    6.93338e-06     0.0353203
Mass Balance Review:  
Density accumulation: 0
Integrated inflow:    5.421010862427522e-20
Integrated open:      0
Total mass closure:   5.42101e-20
Realm shall provide output files at : currentTime/timeStepCount: 9.4/94 (fluidRealm)
Mean System Norm: 3.667117605646361e-06 94 9.4
WallClockTime: 94 Pre: 0.316084 NLI: 2.3436 Post: 0.015362 Total: 2.67504
*******************************************************
Time Step Count: 95 Current Time: 9.5
 dtN: 0.1 dtNm1: 0.1 gammas: 1.5 -2 0.5
 Volume  31.0479 min: 2.37052e-05 max: 0.000427722
 Max Courant: 1.07858 Max Reynolds: 599.214 (fluidRealm)
   Realm Nonlinear Iteration: 1/1

fluidRealm::advance_time_step() 
NLI    Name           Linear Iter      Linear Res     NLinear Res    Scaled NLR
---    ----           -----------      ----------     -----------    ----------
1/3    Equation System Iteration
 1/1      myLowMach
        MomentumEQS            7       3.94713e-08    0.000125927             1
        ContinuityEQS         11       4.00039e-08    0.000195132             1
2/3    Equation System Iteration
 1/1      myLowMach
        MomentumEQS            8       3.65987e-10    4.54111e-06     0.0360614
        ContinuityEQS         12       6.00701e-09    3.95104e-05       0.20248
3/3    Equation System Iteration
 1/1      myLowMach
        MomentumEQS            8       2.91067e-11    4.00401e-07    0.00317963
        ContinuityEQS         12       8.83551e-10    6.93484e-06     0.0355393
Mass Balance Review:  
Density accumulation: 0
Integrated inflow:    1.531435568635775e-18
Integrated open:      0
Total mass closure:   1.53144e-18
Realm shall provide output files at : currentTime/timeStepCount: 9.5/95 (fluidRealm)
Mean System Norm: 3.667620482077564e-06 95 9.5
WallClockTime: 95 Pre: 0.313309 NLI: 2.23502 Post: 0.019711 Total: 2.56804
*******************************************************
Time Step Count: 96 Current Time: 9.6
 dtN: 0.1 dtNm1: 0.1 gammas: 1.5 -2 0.5
 Volume  31.0483 min: 2.37382e-05 max: 0.000427698
 Max Courant: 1.07749 Max Reynolds: 598.607 (fluidRealm)
   Realm Nonlinear Iteration: 1/1

fluidRealm::advance_time_step() 
NLI    Name           Linear Iter      Linear Res     NLinear Res    Scaled NLR
---    ----           -----------      ----------     -----------    ----------
1/3    Equation System Iteration
 1/1      myLowMach
        MomentumEQS            7       3.94506e-08    0.000125763             1
        ContinuityEQS         11       4.78746e-08    0.000193989             1
2/3    Equation System Iteration
 1/1      myLowMach
        MomentumEQS            7       1.82465e-09    4.51037e-06     0.0358641
        ContinuityEQS         12        7.9109e-09    3.93053e-05      0.202616
3/3    Equation System Iteration
 1/1      myLowMach
        MomentumEQS            8       2.74251e-11    4.00214e-07    0.00318229
        ContinuityEQS         12        1.1033e-09    6.93749e-06     0.0357623
Mass Balance Review:  
Density accumulation: 0
Integrated inflow:    3.388131789017201e-20
Integrated open:      0
Total mass closure:   3.38813e-20
Realm shall provide output files at : currentTime/timeStepCount: 9.6/96 (fluidRealm)
Mean System Norm: 3.668853989948038e-06 96 9.6
WallClockTime: 96 Pre: 0.399267 NLI: 2.25806 Post: 0.0157599 Total: 2.67309
*******************************************************
Time Step Count: 97 Current Time: 9.7
 dtN: 0.1 dtNm1: 0.1 gammas: 1.5 -2 0.5
 Volume  31.0488 min: 2.37525e-05 max: 0.000427688
 Max Courant: 1.07971 Max Reynolds: 599.842 (fluidRealm)
   Realm Nonlinear Iteration: 1/1

fluidRealm::advance_time_step() 
NLI    Name           Linear Iter      Linear Res     NLinear Res    Scaled NLR
---    ----           -----------      ----------     -----------    ----------
1/3    Equation System Iteration
 1/1      myLowMach
        MomentumEQS            7       3.40918e-08    0.000125602             1
        ContinuityEQS         11       4.42325e-08    0.000192767             1
2/3    Equation System Iteration
 1/1      myLowMach
        MomentumEQS            7       1.40677e-09    4.47441e-06     0.0356238
        ContinuityEQS         12       7.40661e-09    3.89133e-05      0.201867
3/3    Equation System Iteration
 1/1      myLowMach
        MomentumEQS            8       2.56541e-11    3.98422e-07    0.00317211
        ContinuityEQS         12       1.16754e-09    6.92187e-06     0.0359079
Mass Balance Review:  
Density accumulation: 0
Integrated inflow:    -2.371692252312041e-19
Integrated open:      0
Total mass closure:   -2.37169e-19
Realm shall provide output files at : currentTime/timeStepCount: 9.7/97 (fluidRealm)
Mean System Norm: 3.66014393101777e-06 97 9.7
WallClockTime: 97 Pre: 0.300644 NLI: 2.19201 Post: 0.016094 Total: 2.50874
*******************************************************
Time Step Count: 98 Current Time: 9.8
 dtN: 0.1 dtNm1: 0.1 gammas: 1.5 -2 0.5
 Volume  31.0493 min: 2.37145e-05 max: 0.000427716
 Max Courant: 1.08454 Max Reynolds: 602.522 (fluidRealm)
   Realm Nonlinear Iteration: 1/1

fluidRealm::advance_time_step() 
NLI    Name           Linear Iter      Linear Res     NLinear Res    Scaled NLR
---    ----           -----------      ----------     -----------    ----------
1/3    Equation System Iteration
 1/1      myLowMach
        MomentumEQS            7       3.00165e-08    0.000125444             1
        ContinuityEQS         11       4.63333e-08     0.00019133             1
2/3    Equation System Iteration
 1/1      myLowMach
        MomentumEQS            7       1.36285e-09    4.44708e-06     0.0354508
        ContinuityEQS         12        6.0509e-09    3.86262e-05      0.201883
3/3    Equation System Iteration
 1/1      myLowMach
        MomentumEQS            7       1.58009e-10    3.95716e-07    0.00315452
        ContinuityEQS         12       1.17432e-09    6.89144e-06     0.0360186
Mass Balance Review:  
Density accumulation: 0
Integrated inflow:    1.321371397716709e-19
Integrated open:      0
Total mass closure:   1.32137e-19
Realm shall provide output files at : currentTime/timeStepCount: 9.8/98 (fluidRealm)
Mean System Norm: 3.643577164248785e-06 98 9.8
WallClockTime: 98 Pre: 0.318678 NLI: 2.06281 Post: 0.0165122 Total: 2.398
*******************************************************
Time Step Count: 99 Current Time: 9.9
 dtN: 0.1 dtNm1: 0.1 gammas: 1.5 -2 0.5
 Volume  31.0498 min: 2.36916e-05 max: 0.000427732
 Max Courant: 1.08918 Max Reynolds: 605.099 (fluidRealm)
   Realm Nonlinear Iteration: 1/1

fluidRealm::advance_time_step() 
NLI    Name           Linear Iter      Linear Res     NLinear Res    Scaled NLR
---    ----           -----------      ----------     -----------    ----------
1/3    Equation System Iteration
 1/1      myLowMach
        MomentumEQS            7       2.92082e-08    0.000125291             1
        ContinuityEQS         11       5.99928e-08    0.000189872             1
2/3    Equation System Iteration
 1/1      myLowMach
        MomentumEQS            7       1.39837e-09    4.43209e-06     0.0353743
        ContinuityEQS         12       8.65755e-09    3.85373e-05      0.202964
3/3    Equation System Iteration
 1/1      myLowMach
        MomentumEQS            7       1.57868e-10    3.93531e-07    0.00314093
        ContinuityEQS         12       1.32551e-09    6.87374e-06     0.0362019
Mass Balance Review:  
Density accumulation: 0
Integrated inflow:    -1.355252715606881e-19
Integrated open:      0
Total mass closure:   -1.35525e-19
Realm shall provide output files at : currentTime/timeStepCount: 9.9/99 (fluidRealm)
Mean System Norm: 3.633633859420442e-06 99 9.9
WallClockTime: 99 Pre: 0.298536 NLI: 1.99363 Post: 0.0147231 Total: 2.30689
*******************************************************
Time Step Count: 100 Current Time: 10
 dtN: 0.1 dtNm1: 0.1 gammas: 1.5 -2 0.5
 Volume  31.0503 min: 2.3684e-05 max: 0.000427738
 Max Courant: 1.09266 Max Reynolds: 607.034 (fluidRealm)
   Realm Nonlinear Iteration: 1/1

fluidRealm::advance_time_step() 
NLI    Name           Linear Iter      Linear Res     NLinear Res    Scaled NLR
---    ----           -----------      ----------     -----------    ----------
1/3    Equation System Iteration
 1/1      myLowMach
        MomentumEQS            7       2.95281e-08    0.000125145             1
        ContinuityEQS         11       5.45293e-08    0.000188775             1
2/3    Equation System Iteration
 1/1      myLowMach
        MomentumEQS            7       1.32418e-09    4.41126e-06     0.0352492
        ContinuityEQS         12       8.39088e-09    3.83998e-05      0.203416
3/3    Equation System Iteration
 1/1      myLowMach
        MomentumEQS            8       2.40924e-11    3.91613e-07    0.00312927
        ContinuityEQS         12       9.06754e-10    6.86258e-06     0.0363532
Mass Balance Review:  
Density accumulation: 0
Integrated inflow:    -2.355810384551023e-20
Integrated open:      0
Total mass closure:   -2.35581e-20
Realm shall provide output files at : currentTime/timeStepCount: 10/100 (fluidRealm)
Mean System Norm: 3.62709651248092e-06 100 10
WallClockTime: 100 Pre: 0.30493 NLI: 2.02673 Post: 0.016573 Total: 2.34823
*******************************************************
Simulation Shall Complete: time/timestep: 10/100
*******************************************************

-------------------------------- 
Begin Timer Overview for Realm: fluidRealm
-------------------------------- 
Timing for Eq: myLowMach
             init --   	avg: 3.32892e-05 	min: 2.67029e-05 	max: 3.79086e-05
         assemble --   	avg: 0 	min: 0 	max: 0
    load_complete --   	avg: 0 	min: 0 	max: 0
            solve --   	avg: 0 	min: 0 	max: 0
    precond setup --   	avg: 0 	min: 0 	max: 0
             misc --   	avg: 0 	min: 0 	max: 0
Timing for Eq: MomentumEQS
             init --   	avg: 10.0274 	min: 9.98729 	max: 10.0838
         assemble --   	avg: 19.6828 	min: 18.7495 	max: 20.6612
    load_complete --   	avg: 3.31701 	min: 2.20876 	max: 4.26134
            solve --   	avg: 67.5996 	min: 67.5366 	max: 67.6843
    precond setup --   	avg: 0.936424 	min: 0.873648 	max: 1.00238
             misc --   	avg: 15.3677 	min: 15.3243 	max: 15.3906
linear iterations --  	avg: 7.84333 	min: 7 	max: 32
Timing for Eq: ContinuityEQS
             init --   	avg: 6.77135 	min: 6.74493 	max: 6.80119
         assemble --   	avg: 7.45286 	min: 7.22082 	max: 7.85137
    load_complete --   	avg: 1.10008 	min: 0.780502 	max: 1.26943
            solve --   	avg: 54.2763 	min: 54.2592 	max: 54.2995
    precond setup --   	avg: 22.5713 	min: 22.5641 	max: 22.5813
             misc --   	avg: 11.0509 	min: 10.9765 	max: 11.1179
linear iterations --  	avg: 11.0967 	min: 10 	max: 12
Timing for IO: 
   io create mesh --   	avg: 0.000327617 	min: 0.000281811 	max: 0.000373125
 io output fields --   	avg: 1.39329 	min: 1.37776 	max: 1.40714
 io populate mesh --   	avg: 0.192099 	min: 0.192054 	max: 0.192186
 io populate fd   --   	avg: 0.0157811 	min: 0.0157249 	max: 0.015831
Timing for property evaluation:         
            props --   	avg: 0.0880448 	min: 0.0812142 	max: 0.0967405
Timing for Edge: 
    edge creation --   	avg: 0.336858 	min: 0.336814 	max: 0.336899
Timing for Periodic: 
           search --   	avg: 0.00179169 	min: 0.00174975 	max: 0.00182796

Timing for Simulation: nprocs= 8
           main() --   	avg: 239.74 	min: 239.74 	max: 239.741
Memory Overview: 
nalu memory: total (over all cores) current/high-water mark=       3.11081 G      3.11081 G
nalu memory:   min (over all cores) current/high-water mark=       360.039 M      360.039 M
nalu memory:   max (over all cores) current/high-water mark=       460.137 M      460.137 M
Min High-water memory usage 360.0 MB
Avg High-water memory usage 398.2 MB
Max High-water memory usage 460.1 MB

Min Available memory per processor 0.0 MB
Avg Available memory per processor 0.0 MB
Max Available memory per processor 0.0 MB

Min No-output time 238.3333 sec
Avg No-output time 238.3470 sec
Max No-output time 238.3626 sec

STKPERF: Total Time: 239.7405

STKPERF: Current memory: 482492416 (460.1 M)
STKPERF: Memory high water: 482492416 (460.1 M)
                                                     CPU Time              CPU Time              CPU Time              Wall Time             Wall Time             Wall Time
                 Timer                   Count   Sum (% of System)     Min (% of System)     Max (% of System)     Sum (% of System)     Min (% of System)     Max (% of System)
---------------------------------------- ----- --------------------- --------------------- --------------------- --------------------- --------------------- ---------------------
Nalu                                         8    30:28.566 (100.0%)     3:48.540 (12.50%)     3:48.621 (12.50%)    31:57.928 (100.0%)     3:59.741 (12.50%)     3:59.741 (12.50%)
  CreateEdges                                8        2.675 (0.146%)        0.333 (0.018%)        0.335 (0.018%)        2.695 (0.141%)        0.337 (0.018%)        0.337 (0.018%)
  Output                                  1616        9.256 (0.506%)        1.151 (0.063%)        1.166 (0.064%)       11.151 (0.581%)        1.378 (0.072%)        1.408 (0.073%)

Took 0.0002 seconds to generate the table above.
==============================================================================================================================================

                                                    TimeMonitor results over 8 processors

Timer Name                                         MinOverProcs           MeanOverProcs          MaxOverProcs           MeanOverCallCounts    
----------------------------------------------------------------------------------------------------------------------------------------------
Belos: ICGS[2]: Ortho (Inner Product)              7.0002 (1.136e+04)     8.6160 (1.136e+04)     10.0714 (1.136e+04)    0.0008 (1.136e+04)    
Belos: ICGS[2]: Ortho (Norm)                       0.9221 (6282)          1.1844 (6282)          1.4398 (6282)          0.0002 (6282)         
Belos: ICGS[2]: Ortho (Update)                     4.8293 (1.136e+04)     5.1447 (1.136e+04)     5.4002 (1.136e+04)     0.0005 (1.136e+04)    
Belos: ICGS[2]: Orthogonalization                  13.6187 (6282)         15.2419 (6282)         16.7471 (6282)         0.0024 (6282)         
Belos: Operation Op*x                              22.9523 (6882)         23.6572 (6882)         25.0445 (6882)         0.0034 (6882)         
Belos: Operation Prec*x                            72.9645 (6282)         75.3776 (6282)         77.4275 (6282)         0.0120 (6282)         
Belos: PseudoBlockGmresSolMgr total solve time     114.8688 (600)         115.0031 (600)         115.1202 (600)         0.1917 (600)          
Ifpack2::Chebyshev::apply                          19.0917 (1.452e+04)    21.0560 (1.905e+04)    22.4438 (2.177e+04)    0.0011 (1.905e+04)    
Ifpack2::Chebyshev::compute                        2.4695 (200)           2.6715 (262.5)         2.8245 (300)           0.0102 (262.5)        
Ifpack2::Relaxation::apply                         29.5937 (2653)         31.8870 (2653)         33.7403 (2653)         0.0120 (2653)         
----------------------------------------------------------------------------------------------------------------------------------------------
Ifpack2::Relaxation::compute                       0.8698 (300)           0.9332 (300)           0.9994 (300)           0.0031 (300)          
Ifpack2::Relaxation::initialize                    0.0005 (101)           0.0006 (101)           0.0007 (101)           0.0000 (101)          
MueLu: ParameterListInterpreter (ParameterList)    2.7102 (100)           2.7496 (100)           2.7939 (100)           0.0275 (100)          
nalu MueLu preconditioner setup                    22.5544 (100)          22.5612 (100)          22.5705 (100)          0.2256 (100)          
==============================================================================================================================================
